data_structure

_audit_creation_method RASPA-1.0
_audit_creation_date 2023-5-19
_audit_author_name 'Poobodin Mano'

_cell_length_a    42.1866
_cell_length_b    42.0523
_cell_length_c    41.5791
_cell_angle_alpha 90
_cell_angle_beta  90
_cell_angle_gamma 90
_cell_volume      73763.1

_symmetry_cell_setting          triclinic
_symmetry_space_group_name_Hall 'P 1'
_symmetry_space_group_name_H-M  'P 1'
_symmetry_Int_Tables_number     1

_symmetry_equiv_pos_as_xyz 'x,y,z'

loop_
_atom_site_label
_atom_site_type_symbol
_atom_site_fract_x
_atom_site_fract_y
_atom_site_fract_z
_atom_site_charge
C1       C      0.510870000000     0.064230000000     0.271840000000     0.441026   
C2       C      0.005400000000     0.443810000000     0.258140000000     0.446944   
C3       C      0.447940000000     0.006040000000     0.258760000000     0.436635   
C4       C      0.068120000000     0.001330000000     0.271290000000     0.439732   
C5       C      0.997380000000     0.313930000000     0.247070000000     0.429747   
C6       C      0.001840000000     0.193260000000     0.259880000000     0.42744    
C7       C      0.502460000000     0.260210000000     0.314570000000     0.43118    
C8       C      0.496520000000     0.247450000000     0.192960000000     0.437637   
C9       C      0.315980000000     0.498080000000     0.249930000000     0.434701   
C10      C      0.195350000000     0.491840000000     0.254340000000     0.443287   
C11      C      0.257290000000     0.008180000000     0.311710000000     0.437806   
C12      C      0.254200000000     0.981650000000     0.192200000000     0.457279   
C13      C      0.246430000000     0.997360000000     0.064410000000     0.433185   
C14      C      0.248150000000     0.503120000000     0.441940000000     0.427271   
C15      C      0.247660000000     0.060730000000     0.006220000000     0.429413   
C16      C      0.247080000000     0.440050000000     0.999990000000     0.429325   
C17      C      0.990340000000     0.239070000000     0.059120000000     0.434341   
C18      C      0.481990000000     0.237730000000     0.437160000000     0.448882   
C19      C      0.046320000000     0.239040000000     0.993700000000     0.437381   
C20      C      0.426130000000     0.237500000000     0.003120000000     0.445881   
C21      C      0.235960000000     0.189520000000     0.497450000000     0.446299   
C22      C      0.236590000000     0.310300000000     0.504970000000     0.445343   
C23      C      0.175680000000     0.250540000000     0.001260000000     0.429142   
C24      C      0.296610000000     0.249590000000     0.000960000000     0.439175   
C25      C      0.346670000000     0.239140000000     0.472280000000    -0.0104637  
C26      C      0.346630000000     0.266090000000     0.026600000000    -0.0359974  
C27      C      0.374990000000     0.218930000000     0.482780000000    -0.00433522 
C28      C      0.377450000000     0.248090000000     0.035300000000     0.096972   
C29      C      0.124970000000     0.237980000000     0.027900000000    -0.0112309  
C30      C      0.126380000000     0.271360000000     0.477600000000    -0.0334188  
C31      C      0.096890000000     0.219230000000     0.014340000000    -0.00818384 
C32      C      0.096280000000     0.254270000000     0.465330000000     0.0934847  
C33      C      0.226850000000     0.391260000000     0.474560000000    -0.0111761  
C34      C      0.271560000000     0.389030000000     0.514680000000    -0.0330094  
C35      C      0.212970000000     0.360750000000     0.988690000000    -0.00793255 
C36      C      0.255900000000     0.360000000000     0.031040000000     0.0954459  
C37      C      0.226420000000     0.110040000000     0.029850000000    -0.0110188  
C38      C      0.272610000000     0.111620000000     0.491480000000    -0.0324292  
C39      C      0.212050000000     0.139120000000     0.013450000000    -0.00715797 
C40      C      0.256970000000     0.139590000000     0.473220000000     0.0947785  
C41      C      0.271650000000     0.483310000000     0.391700000000    -0.0117107  
C42      C      0.223170000000     0.518540000000     0.390350000000    -0.032995   
C43      C      0.285060000000     0.000880000000     0.362750000000    -0.0205092  
C44      C      0.237180000000     0.036360000000     0.360790000000     0.0944753  
C45      C      0.271870000000     0.010390000000     0.116310000000    -0.0215081  
C46      C      0.219000000000     0.482530000000     0.115050000000    -0.0364925  
C47      C      0.283320000000     0.987300000000     0.142080000000     0.000759724
C48      C      0.230810000000     0.459200000000     0.141170000000     0.0929325  
C49      C      0.025690000000     0.244250000000     0.366460000000    -0.0172774  
C50      C      0.978560000000     0.280610000000     0.364440000000    -0.0366863  
C51      C      0.506490000000     0.220420000000     0.386870000000    -0.00690387 
C52      C      0.459330000000     0.256610000000     0.384050000000     0.0978753  
C53      C      0.011540000000     0.265260000000     0.106980000000    -0.00991225 
C54      C      0.479330000000     0.214140000000     0.111540000000    -0.0306175  
C55      C      0.022090000000     0.255960000000     0.140860000000    -0.00214172 
C56      C      0.468920000000     0.226880000000     0.144680000000     0.0944648  
C57      C      0.143480000000     0.011940000000     0.235950000000    -0.0163308  
C58      C      0.146420000000     0.465510000000     0.273930000000    -0.031963   
C59      C      0.117860000000     0.026850000000     0.256760000000    -0.0110321  
C60      C      0.119850000000     0.480380000000     0.294710000000     0.0909887  
C61      C      0.396810000000     0.488480000000     0.280100000000    -0.00894882 
C62      C      0.400410000000     0.016830000000     0.225940000000    -0.0335861  
C63      C      0.366780000000     0.474460000000     0.265460000000    -0.00298619 
C64      C      0.364770000000     0.024920000000     0.231360000000     0.092379   
C65      C      0.020470000000     0.363220000000     0.224580000000    -0.00947722 
C66      C      0.467860000000     0.364240000000     0.252510000000    -0.0328166  
C67      C      0.029960000000     0.394410000000     0.241040000000    -0.0101031  
C68      C      0.478180000000     0.393680000000     0.272160000000     0.0954311  
C69      C      0.477340000000     0.142270000000     0.276470000000    -0.0133099  
C70      C      0.027260000000     0.143440000000     0.242830000000    -0.0350263  
C71      C      0.490720000000     0.113880000000     0.295530000000    -0.00740577 
C72      C      0.040060000000     0.115010000000     0.262140000000     0.0953477  
C73      C      0.510870000000     0.064230000000     0.771840000000     0.44103    
C74      C      0.005400000000     0.443810000000     0.758140000000     0.446945   
C75      C      0.447940000000     0.006040000000     0.758750000000     0.436622   
C76      C      0.068120000000     0.001330000000     0.771290000000     0.439735   
C77      C      0.997380000000     0.313930000000     0.747070000000     0.429747   
C78      C      0.001840000000     0.193260000000     0.759880000000     0.42744    
C79      C      0.502460000000     0.260210000000     0.814570000000     0.43118    
C80      C      0.496520000000     0.247450000000     0.692960000000     0.437634   
C81      C      0.315980000000     0.498080000000     0.749930000000     0.434701   
C82      C      0.195350000000     0.491840000000     0.754340000000     0.443287   
C83      C      0.257290000000     0.008180000000     0.811710000000     0.437806   
C84      C      0.254200000000     0.981650000000     0.692200000000     0.457279   
C85      C      0.246430000000     0.997360000000     0.564410000000     0.433188   
C86      C      0.248150000000     0.503120000000     0.941940000000     0.427266   
C87      C      0.247660000000     0.060730000000     0.506220000000     0.429416   
C88      C      0.247080000000     0.440050000000     0.499990000000     0.4293     
C89      C      0.990340000000     0.239070000000     0.559120000000     0.434336   
C90      C      0.481990000000     0.237730000000     0.937170000000     0.449077   
C91      C      0.046320000000     0.239040000000     0.493700000000     0.437376   
C92      C      0.426130000000     0.237500000000     0.503120000000     0.445904   
C93      C      0.235960000000     0.189520000000     0.997450000000     0.446329   
C94      C      0.236590000000     0.310300000000     0.004970000000     0.445316   
C95      C      0.175680000000     0.250540000000     0.501260000000     0.429169   
C96      C      0.296610000000     0.249590000000     0.500960000000     0.439202   
C97      C      0.346670000000     0.239140000000     0.972280000000    -0.0104659  
C98      C      0.346630000000     0.266090000000     0.526600000000    -0.0359943  
C99      C      0.374990000000     0.218930000000     0.982780000000    -0.00428077 
C100     C      0.377450000000     0.248090000000     0.535300000000     0.0969728  
C101     C      0.124970000000     0.237980000000     0.527900000000    -0.0112326  
C102     C      0.126380000000     0.271360000000     0.977600000000    -0.0334021  
C103     C      0.096890000000     0.219230000000     0.514340000000    -0.00816591 
C104     C      0.096280000000     0.254270000000     0.965330000000     0.0934832  
C105     C      0.226850000000     0.391260000000     0.974560000000    -0.0111649  
C106     C      0.271560000000     0.389030000000     0.014680000000    -0.0330526  
C107     C      0.212970000000     0.360750000000     0.488700000000    -0.00793037 
C108     C      0.255900000000     0.360000000000     0.531040000000     0.0954391  
C109     C      0.226420000000     0.110040000000     0.529850000000    -0.0110304  
C110     C      0.272610000000     0.111620000000     0.991480000000    -0.0323816  
C111     C      0.212050000000     0.139120000000     0.513450000000    -0.00711175 
C112     C      0.256970000000     0.139590000000     0.973220000000     0.0947706  
C113     C      0.271650000000     0.483310000000     0.891700000000    -0.0117111  
C114     C      0.223170000000     0.518540000000     0.890350000000    -0.0329956  
C115     C      0.285060000000     0.000880000000     0.862750000000    -0.0205084  
C116     C      0.237180000000     0.036360000000     0.860790000000     0.0944755  
C117     C      0.271870000000     0.010390000000     0.616310000000    -0.0215082  
C118     C      0.219000000000     0.482530000000     0.615050000000    -0.0364925  
C119     C      0.283320000000     0.987300000000     0.642080000000     0.000759717
C120     C      0.230810000000     0.459200000000     0.641170000000     0.0929325  
C121     C      0.025690000000     0.244250000000     0.866460000000    -0.0172731  
C122     C      0.978560000000     0.280610000000     0.864440000000    -0.0366758  
C123     C      0.506490000000     0.220420000000     0.886870000000    -0.00692117 
C124     C      0.459330000000     0.256610000000     0.884050000000     0.0978352  
C125     C      0.011540000000     0.265260000000     0.606980000000    -0.00991216 
C126     C      0.479330000000     0.214140000000     0.611540000000    -0.030617   
C127     C      0.022090000000     0.255960000000     0.640860000000    -0.00214099 
C128     C      0.468920000000     0.226880000000     0.644680000000     0.0944675  
C129     C      0.143480000000     0.011940000000     0.735950000000    -0.0163307  
C130     C      0.146420000000     0.465510000000     0.773930000000    -0.0319646  
C131     C      0.117860000000     0.026850000000     0.756760000000    -0.0110319  
C132     C      0.119850000000     0.480380000000     0.794710000000     0.0909955  
C133     C      0.396810000000     0.488480000000     0.780100000000    -0.00893779 
C134     C      0.400410000000     0.016830000000     0.725940000000    -0.0335945  
C135     C      0.366780000000     0.474460000000     0.765460000000    -0.00299018 
C136     C      0.364770000000     0.024920000000     0.731360000000     0.0923818  
C137     C      0.020470000000     0.363220000000     0.724580000000    -0.00947711 
C138     C      0.467860000000     0.364240000000     0.752510000000    -0.0328166  
C139     C      0.029960000000     0.394410000000     0.741040000000    -0.0101032  
C140     C      0.478180000000     0.393680000000     0.772160000000     0.0954307  
C141     C      0.477340000000     0.142270000000     0.776470000000    -0.0133099  
C142     C      0.027260000000     0.143440000000     0.742830000000    -0.035011   
C143     C      0.490720000000     0.113880000000     0.795530000000    -0.00740631 
C144     C      0.040060000000     0.115010000000     0.762150000000     0.0953643  
C145     C      0.510870000000     0.564230000000     0.271840000000     0.441611   
C146     C      0.005400000000     0.943810000000     0.258140000000     0.445789   
C147     C      0.447940000000     0.506040000000     0.258760000000     0.437867   
C148     C      0.068120000000     0.501330000000     0.271290000000     0.448243   
C149     C      0.997380000000     0.813930000000     0.247070000000     0.429725   
C150     C      0.001840000000     0.693260000000     0.259880000000     0.427334   
C151     C      0.502460000000     0.760210000000     0.314570000000     0.431175   
C152     C      0.496520000000     0.747450000000     0.192960000000     0.437636   
C153     C      0.315980000000     0.998090000000     0.249930000000     0.442132   
C154     C      0.195350000000     0.991850000000     0.254340000000     0.450365   
C155     C      0.257290000000     0.508180000000     0.311710000000     0.445624   
C156     C      0.254200000000     0.481650000000     0.192200000000     0.450105   
C157     C      0.246430000000     0.497360000000     0.064410000000     0.426985   
C158     C      0.248150000000     0.003120000000     0.441940000000     0.418741   
C159     C      0.247660000000     0.560740000000     0.006220000000     0.430134   
C160     C      0.247080000000     0.940050000000     0.999990000000     0.427728   
C161     C      0.990340000000     0.739070000000     0.059120000000     0.434304   
C162     C      0.481990000000     0.737730000000     0.437160000000     0.448843   
C163     C      0.046320000000     0.739040000000     0.993700000000     0.437093   
C164     C      0.426130000000     0.737500000000     0.003120000000     0.445848   
C165     C      0.235960000000     0.689520000000     0.497450000000     0.446246   
C166     C      0.236590000000     0.810300000000     0.504970000000     0.44535    
C167     C      0.175680000000     0.750540000000     0.001260000000     0.429132   
C168     C      0.296610000000     0.749590000000     0.000960000000     0.439178   
C169     C      0.346670000000     0.739130000000     0.472280000000    -0.0105063  
C170     C      0.346630000000     0.766090000000     0.026600000000    -0.0360997  
C171     C      0.374990000000     0.718930000000     0.482780000000    -0.00430314 
C172     C      0.377450000000     0.748090000000     0.035300000000     0.0970002  
C173     C      0.124970000000     0.737980000000     0.027900000000    -0.0112036  
C174     C      0.126380000000     0.771370000000     0.477600000000    -0.0335906  
C175     C      0.096890000000     0.719230000000     0.014340000000    -0.00822096 
C176     C      0.096280000000     0.754270000000     0.465330000000     0.0935315  
C177     C      0.226850000000     0.891260000000     0.474560000000    -0.0112946  
C178     C      0.271560000000     0.889020000000     0.514680000000    -0.033222   
C179     C      0.212970000000     0.860750000000     0.988690000000    -0.00790386 
C180     C      0.255900000000     0.860000000000     0.031040000000     0.0955443  
C181     C      0.226420000000     0.610040000000     0.029850000000    -0.0109921  
C182     C      0.272610000000     0.611620000000     0.491480000000    -0.0324191  
C183     C      0.212050000000     0.639120000000     0.013450000000    -0.00717931 
C184     C      0.256970000000     0.639590000000     0.473220000000     0.0947815  
C185     C      0.271650000000     0.983310000000     0.391700000000     0.000187271
C186     C      0.223170000000     0.018540000000     0.390350000000    -0.039879   
C187     C      0.285060000000     0.500880000000     0.362750000000    -0.00615078 
C188     C      0.237180000000     0.536360000000     0.360790000000     0.0940475  
C189     C      0.271870000000     0.510390000000     0.116310000000    -0.0118442  
C190     C      0.219000000000     0.982530000000     0.115050000000    -0.0295203  
C191     C      0.283320000000     0.487300000000     0.142080000000    -0.00612763 
C192     C      0.230810000000     0.959200000000     0.141170000000     0.0923781  
C193     C      0.025690000000     0.744240000000     0.366460000000    -0.0173392  
C194     C      0.978560000000     0.780610000000     0.364440000000    -0.036742   
C195     C      0.506490000000     0.720420000000     0.386870000000    -0.00690367 
C196     C      0.459330000000     0.756610000000     0.384050000000     0.0978881  
C197     C      0.011540000000     0.765260000000     0.106980000000    -0.00989856 
C198     C      0.479330000000     0.714140000000     0.111540000000    -0.0306575  
C199     C      0.022090000000     0.755960000000     0.140860000000    -0.00217222 
C200     C      0.468920000000     0.726880000000     0.144680000000     0.0944736  
C201     C      0.143480000000     0.511940000000     0.235950000000    -0.00461843 
C202     C      0.146420000000     0.965510000000     0.273930000000    -0.0322726  
C203     C      0.117860000000     0.526850000000     0.256760000000    -0.0134295  
C204     C      0.119850000000     0.980380000000     0.294710000000     0.0947314  
C205     C      0.396810000000     0.988490000000     0.280100000000     0.0029522  
C206     C      0.400410000000     0.516830000000     0.225940000000    -0.0271557  
C207     C      0.366780000000     0.974460000000     0.265460000000    -0.00531454 
C208     C      0.364770000000     0.524920000000     0.231360000000     0.0947356  
C209     C      0.020470000000     0.863230000000     0.224580000000    -0.0094707  
C210     C      0.467860000000     0.864240000000     0.252510000000    -0.0328598  
C211     C      0.029960000000     0.894410000000     0.241040000000    -0.0101537  
C212     C      0.478180000000     0.893680000000     0.272160000000     0.09547    
C213     C      0.477340000000     0.642270000000     0.276470000000    -0.0133465  
C214     C      0.027260000000     0.643440000000     0.242830000000    -0.0350895  
C215     C      0.490720000000     0.613880000000     0.295530000000    -0.00738567 
C216     C      0.040060000000     0.615010000000     0.262140000000     0.0954325  
C217     C      0.510870000000     0.564230000000     0.771840000000     0.441615   
C218     C      0.005400000000     0.943810000000     0.758140000000     0.44579    
C219     C      0.447940000000     0.506040000000     0.758750000000     0.437854   
C220     C      0.068120000000     0.501330000000     0.771290000000     0.448246   
C221     C      0.997380000000     0.813930000000     0.747070000000     0.429725   
C222     C      0.001840000000     0.693260000000     0.759880000000     0.427334   
C223     C      0.502460000000     0.760210000000     0.814570000000     0.431176   
C224     C      0.496520000000     0.747450000000     0.692960000000     0.437634   
C225     C      0.315980000000     0.998090000000     0.749930000000     0.442132   
C226     C      0.195350000000     0.991850000000     0.754340000000     0.450365   
C227     C      0.257290000000     0.508180000000     0.811710000000     0.445624   
C228     C      0.254200000000     0.481650000000     0.692200000000     0.450105   
C229     C      0.246430000000     0.497360000000     0.564410000000     0.426987   
C230     C      0.248150000000     0.003120000000     0.941940000000     0.418736   
C231     C      0.247660000000     0.560740000000     0.506220000000     0.430137   
C232     C      0.247080000000     0.940050000000     0.499990000000     0.427703   
C233     C      0.990340000000     0.739070000000     0.559120000000     0.434299   
C234     C      0.481990000000     0.737730000000     0.937170000000     0.449038   
C235     C      0.046320000000     0.739040000000     0.493700000000     0.437088   
C236     C      0.426130000000     0.737500000000     0.503120000000     0.445871   
C237     C      0.235960000000     0.689520000000     0.997450000000     0.446276   
C238     C      0.236590000000     0.810300000000     0.004970000000     0.445324   
C239     C      0.175680000000     0.750540000000     0.501260000000     0.429159   
C240     C      0.296610000000     0.749590000000     0.500960000000     0.439206   
C241     C      0.346670000000     0.739130000000     0.972280000000    -0.0105086  
C242     C      0.346630000000     0.766090000000     0.526600000000    -0.0360966  
C243     C      0.374990000000     0.718930000000     0.982780000000    -0.00424877 
C244     C      0.377450000000     0.748090000000     0.535300000000     0.097001   
C245     C      0.124970000000     0.737980000000     0.527900000000    -0.0112053  
C246     C      0.126380000000     0.771370000000     0.977600000000    -0.033574   
C247     C      0.096890000000     0.719230000000     0.514340000000    -0.00820316 
C248     C      0.096280000000     0.754270000000     0.965330000000     0.09353    
C249     C      0.226850000000     0.891260000000     0.974560000000    -0.0112833  
C250     C      0.271560000000     0.889020000000     0.014680000000    -0.0332647  
C251     C      0.212970000000     0.860750000000     0.488700000000    -0.00790123 
C252     C      0.255900000000     0.860000000000     0.531040000000     0.0955376  
C253     C      0.226420000000     0.610040000000     0.529850000000    -0.0110038  
C254     C      0.272610000000     0.611620000000     0.991480000000    -0.0323717  
C255     C      0.212050000000     0.639120000000     0.513450000000    -0.00713331 
C256     C      0.256970000000     0.639590000000     0.973220000000     0.0947736  
C257     C      0.271650000000     0.983310000000     0.891700000000     0.000186147
C258     C      0.223170000000     0.018540000000     0.890350000000    -0.0398792  
C259     C      0.285060000000     0.500880000000     0.862750000000    -0.00615075 
C260     C      0.237180000000     0.536360000000     0.860790000000     0.0940477  
C261     C      0.271870000000     0.510390000000     0.616310000000    -0.0118442  
C262     C      0.219000000000     0.982530000000     0.615050000000    -0.0295202  
C263     C      0.283320000000     0.487300000000     0.642080000000    -0.0061277  
C264     C      0.230810000000     0.959200000000     0.641170000000     0.0923781  
C265     C      0.025690000000     0.744240000000     0.866460000000    -0.0173349  
C266     C      0.978560000000     0.780610000000     0.864440000000    -0.0367315  
C267     C      0.506490000000     0.720420000000     0.886870000000    -0.00692097 
C268     C      0.459330000000     0.756610000000     0.884050000000     0.097848   
C269     C      0.011540000000     0.765260000000     0.606980000000    -0.00989847 
C270     C      0.479330000000     0.714140000000     0.611540000000    -0.030657   
C271     C      0.022090000000     0.755960000000     0.640860000000    -0.00217149 
C272     C      0.468920000000     0.726880000000     0.644680000000     0.0944763  
C273     C      0.143480000000     0.511940000000     0.735950000000    -0.00461852 
C274     C      0.146420000000     0.965510000000     0.773930000000    -0.0322741  
C275     C      0.117860000000     0.526850000000     0.756760000000    -0.0134294  
C276     C      0.119850000000     0.980380000000     0.794710000000     0.094738   
C277     C      0.396810000000     0.988490000000     0.780100000000     0.00296284 
C278     C      0.400410000000     0.516830000000     0.725940000000    -0.0271642  
C279     C      0.366780000000     0.974460000000     0.765460000000    -0.00531844 
C280     C      0.364770000000     0.524920000000     0.731360000000     0.0947383  
C281     C      0.020470000000     0.863230000000     0.724580000000    -0.00947058 
C282     C      0.467860000000     0.864240000000     0.752510000000    -0.0328598  
C283     C      0.029960000000     0.894410000000     0.741040000000    -0.0101538  
C284     C      0.478180000000     0.893680000000     0.772160000000     0.0954697  
C285     C      0.477340000000     0.642270000000     0.776470000000    -0.0133465  
C286     C      0.027260000000     0.643440000000     0.742830000000    -0.0350742  
C287     C      0.490720000000     0.613880000000     0.795530000000    -0.00738621 
C288     C      0.040060000000     0.615010000000     0.762150000000     0.0954491  
C289     C      0.010870000000     0.064230000000     0.271840000000     0.441057   
C290     C      0.505400000000     0.443810000000     0.258140000000     0.446871   
C291     C      0.947940000000     0.006040000000     0.258760000000     0.436657   
C292     C      0.568120000000     0.001330000000     0.271290000000     0.439728   
C293     C      0.497380000000     0.313930000000     0.247070000000     0.429845   
C294     C      0.501840000000     0.193260000000     0.259880000000     0.42697    
C295     C      0.002460000000     0.260210000000     0.314570000000     0.431394   
C296     C      0.996520000000     0.247450000000     0.192960000000     0.437537   
C297     C      0.815980000000     0.498080000000     0.249930000000     0.434701   
C298     C      0.695350000000     0.491840000000     0.254340000000     0.443286   
C299     C      0.757290000000     0.008180000000     0.311710000000     0.437831   
C300     C      0.754200000000     0.981650000000     0.192200000000     0.457258   
C301     C      0.746430000000     0.997360000000     0.064410000000     0.433166   
C302     C      0.748150000000     0.503120000000     0.441940000000     0.427271   
C303     C      0.747660000000     0.060730000000     0.006220000000     0.429416   
C304     C      0.747080000000     0.440050000000     0.999990000000     0.429325   
C305     C      0.490340000000     0.239070000000     0.059120000000     0.434299   
C306     C      0.981990000000     0.237730000000     0.437160000000     0.44888    
C307     C      0.546320000000     0.239040000000     0.993700000000     0.437401   
C308     C      0.926130000000     0.237500000000     0.003120000000     0.445876   
C309     C      0.735960000000     0.189520000000     0.497450000000     0.446299   
C310     C      0.736590000000     0.310300000000     0.504970000000     0.445344   
C311     C      0.675680000000     0.250540000000     0.001260000000     0.429142   
C312     C      0.796610000000     0.249590000000     0.000960000000     0.439176   
C313     C      0.846670000000     0.239140000000     0.472280000000    -0.010463   
C314     C      0.846630000000     0.266090000000     0.026600000000    -0.0359925  
C315     C      0.874990000000     0.218930000000     0.482780000000    -0.00433575 
C316     C      0.877450000000     0.248090000000     0.035300000000     0.0969661  
C317     C      0.624970000000     0.237980000000     0.027900000000    -0.0112316  
C318     C      0.626380000000     0.271360000000     0.477600000000    -0.033416   
C319     C      0.596890000000     0.219230000000     0.014340000000    -0.00818064 
C320     C      0.596280000000     0.254270000000     0.465330000000     0.0934823  
C321     C      0.726850000000     0.391260000000     0.474560000000    -0.0111846  
C322     C      0.771560000000     0.389030000000     0.514680000000    -0.0330103  
C323     C      0.712970000000     0.360750000000     0.988690000000    -0.00790534 
C324     C      0.755900000000     0.360000000000     0.031040000000     0.095446   
C325     C      0.726420000000     0.110040000000     0.029850000000    -0.0110358  
C326     C      0.772610000000     0.111620000000     0.491480000000    -0.0324296  
C327     C      0.712050000000     0.139120000000     0.013450000000    -0.00715077 
C328     C      0.756970000000     0.139590000000     0.473220000000     0.0947798  
C329     C      0.771650000000     0.483310000000     0.391700000000    -0.0117104  
C330     C      0.723170000000     0.518540000000     0.390350000000    -0.0329936  
C331     C      0.785060000000     0.000880000000     0.362750000000    -0.0204591  
C332     C      0.737180000000     0.036360000000     0.360790000000     0.0944743  
C333     C      0.771870000000     0.010390000000     0.116310000000    -0.021477   
C334     C      0.719000000000     0.482530000000     0.115050000000    -0.0364909  
C335     C      0.783320000000     0.987300000000     0.142080000000     0.000737949
C336     C      0.730810000000     0.459200000000     0.141170000000     0.0929316  
C337     C      0.525690000000     0.244250000000     0.366460000000    -0.0172292  
C338     C      0.478560000000     0.280610000000     0.364440000000    -0.0365996  
C339     C      0.006490000000     0.220420000000     0.386870000000    -0.00662116 
C340     C      0.959330000000     0.256610000000     0.384050000000     0.0978945  
C341     C      0.511540000000     0.265260000000     0.106980000000    -0.0101643  
C342     C      0.979330000000     0.214140000000     0.111540000000    -0.0305844  
C343     C      0.522090000000     0.255960000000     0.140860000000    -0.00217912 
C344     C      0.968920000000     0.226880000000     0.144680000000     0.094445   
C345     C      0.643480000000     0.011940000000     0.235950000000    -0.0163096  
C346     C      0.646410000000     0.465510000000     0.273930000000    -0.0320005  
C347     C      0.617860000000     0.026850000000     0.256760000000    -0.0110361  
C348     C      0.619850000000     0.480380000000     0.294710000000     0.0910305  
C349     C      0.896810000000     0.488480000000     0.280100000000    -0.0089469  
C350     C      0.900410000000     0.016830000000     0.225940000000    -0.0335476  
C351     C      0.866780000000     0.474460000000     0.265460000000    -0.0029876  
C352     C      0.864770000000     0.024920000000     0.231360000000     0.0923843  
C353     C      0.520470000000     0.363220000000     0.224580000000    -0.00957844 
C354     C      0.967860000000     0.364240000000     0.252510000000    -0.0328032  
C355     C      0.529960000000     0.394410000000     0.241040000000    -0.0101001  
C356     C      0.978180000000     0.393680000000     0.272160000000     0.0953396  
C357     C      0.977340000000     0.142270000000     0.276470000000    -0.0133209  
C358     C      0.527260000000     0.143440000000     0.242830000000    -0.0350475  
C359     C      0.990720000000     0.113880000000     0.295530000000    -0.00760894 
C360     C      0.540060000000     0.115010000000     0.262140000000     0.0953441  
C361     C      0.010870000000     0.064230000000     0.771840000000     0.441062   
C362     C      0.505400000000     0.443810000000     0.758140000000     0.446872   
C363     C      0.947940000000     0.006040000000     0.758750000000     0.436645   
C364     C      0.568120000000     0.001330000000     0.771290000000     0.439731   
C365     C      0.497380000000     0.313930000000     0.747070000000     0.429845   
C366     C      0.501840000000     0.193260000000     0.759880000000     0.42697    
C367     C      0.002460000000     0.260210000000     0.814570000000     0.431394   
C368     C      0.996520000000     0.247450000000     0.692960000000     0.437534   
C369     C      0.815980000000     0.498080000000     0.749930000000     0.4347     
C370     C      0.695350000000     0.491840000000     0.754340000000     0.443286   
C371     C      0.757290000000     0.008180000000     0.811710000000     0.437831   
C372     C      0.754200000000     0.981650000000     0.692200000000     0.457258   
C373     C      0.746430000000     0.997360000000     0.564410000000     0.433168   
C374     C      0.748150000000     0.503120000000     0.941940000000     0.427266   
C375     C      0.747660000000     0.060730000000     0.506220000000     0.429419   
C376     C      0.747080000000     0.440050000000     0.499990000000     0.4293     
C377     C      0.490340000000     0.239070000000     0.559120000000     0.434293   
C378     C      0.981990000000     0.237730000000     0.937170000000     0.449075   
C379     C      0.546320000000     0.239040000000     0.493700000000     0.437396   
C380     C      0.926130000000     0.237500000000     0.503120000000     0.445899   
C381     C      0.735960000000     0.189520000000     0.997450000000     0.446329   
C382     C      0.736590000000     0.310300000000     0.004970000000     0.445318   
C383     C      0.675680000000     0.250540000000     0.501260000000     0.429169   
C384     C      0.796610000000     0.249590000000     0.500960000000     0.439203   
C385     C      0.846670000000     0.239140000000     0.972280000000    -0.0104654  
C386     C      0.846630000000     0.266090000000     0.526600000000    -0.0359894  
C387     C      0.874990000000     0.218930000000     0.982780000000    -0.00428152 
C388     C      0.877450000000     0.248090000000     0.535300000000     0.096967   
C389     C      0.624970000000     0.237980000000     0.527900000000    -0.0112333  
C390     C      0.626380000000     0.271360000000     0.977600000000    -0.0333996  
C391     C      0.596890000000     0.219230000000     0.514340000000    -0.00816302 
C392     C      0.596280000000     0.254270000000     0.965330000000     0.0934808  
C393     C      0.726850000000     0.391260000000     0.974560000000    -0.0111733  
C394     C      0.771560000000     0.389030000000     0.014680000000    -0.0330529  
C395     C      0.712970000000     0.360750000000     0.488700000000    -0.00790249 
C396     C      0.755900000000     0.360000000000     0.531040000000     0.0954393  
C397     C      0.726420000000     0.110040000000     0.529850000000    -0.0110473  
C398     C      0.772610000000     0.111620000000     0.991480000000    -0.0323827  
C399     C      0.712050000000     0.139120000000     0.513450000000    -0.00710523 
C400     C      0.756970000000     0.139590000000     0.973220000000     0.094772   
C401     C      0.771650000000     0.483310000000     0.891700000000    -0.0117108  
C402     C      0.723170000000     0.518540000000     0.890350000000    -0.0329942  
C403     C      0.785060000000     0.000880000000     0.862750000000    -0.0204583  
C404     C      0.737180000000     0.036360000000     0.860790000000     0.0944744  
C405     C      0.771870000000     0.010390000000     0.616310000000    -0.0214771  
C406     C      0.719000000000     0.482530000000     0.615050000000    -0.0364909  
C407     C      0.783320000000     0.987300000000     0.642080000000     0.000737944
C408     C      0.730810000000     0.459200000000     0.641170000000     0.0929317  
C409     C      0.525690000000     0.244250000000     0.866460000000    -0.0172249  
C410     C      0.478560000000     0.280610000000     0.864440000000    -0.0365889  
C411     C      0.006490000000     0.220420000000     0.886870000000    -0.00663797 
C412     C      0.959330000000     0.256610000000     0.884050000000     0.0978544  
C413     C      0.511540000000     0.265260000000     0.606980000000    -0.0101649  
C414     C      0.979330000000     0.214140000000     0.611540000000    -0.0305839  
C415     C      0.522090000000     0.255960000000     0.640860000000    -0.00217843 
C416     C      0.968920000000     0.226880000000     0.644680000000     0.0944477  
C417     C      0.643480000000     0.011940000000     0.735950000000    -0.0163095  
C418     C      0.646410000000     0.465510000000     0.773930000000    -0.0320021  
C419     C      0.617860000000     0.026850000000     0.756760000000    -0.0110359  
C420     C      0.619850000000     0.480380000000     0.794710000000     0.0910373  
C421     C      0.896810000000     0.488480000000     0.780100000000    -0.00893587 
C422     C      0.900410000000     0.016830000000     0.725940000000    -0.0335559  
C423     C      0.866780000000     0.474460000000     0.765460000000    -0.00299159 
C424     C      0.864770000000     0.024920000000     0.731360000000     0.0923871  
C425     C      0.520470000000     0.363220000000     0.724580000000    -0.00957852 
C426     C      0.967860000000     0.364240000000     0.752510000000    -0.0328032  
C427     C      0.529960000000     0.394410000000     0.741040000000    -0.0101002  
C428     C      0.978180000000     0.393680000000     0.772160000000     0.0953391  
C429     C      0.977340000000     0.142270000000     0.776470000000    -0.0133209  
C430     C      0.527260000000     0.143440000000     0.742830000000    -0.0350322  
C431     C      0.990720000000     0.113880000000     0.795530000000    -0.00760995 
C432     C      0.540060000000     0.115010000000     0.762150000000     0.0953607  
C433     C      0.010870000000     0.564230000000     0.271840000000     0.441645   
C434     C      0.505400000000     0.943810000000     0.258140000000     0.445717   
C435     C      0.947940000000     0.506040000000     0.258760000000     0.43789    
C436     C      0.568120000000     0.501330000000     0.271290000000     0.448231   
C437     C      0.497380000000     0.813930000000     0.247070000000     0.429848   
C438     C      0.501840000000     0.693260000000     0.259880000000     0.426844   
C439     C      0.002460000000     0.760210000000     0.314570000000     0.431409   
C440     C      0.996520000000     0.747450000000     0.192960000000     0.437512   
C441     C      0.815980000000     0.998090000000     0.249930000000     0.442104   
C442     C      0.695350000000     0.991850000000     0.254340000000     0.450347   
C443     C      0.757290000000     0.508180000000     0.311710000000     0.445625   
C444     C      0.754200000000     0.481650000000     0.192200000000     0.450105   
C445     C      0.746430000000     0.497360000000     0.064410000000     0.426986   
C446     C      0.748150000000     0.003120000000     0.441940000000     0.418769   
C447     C      0.747660000000     0.560740000000     0.006220000000     0.430135   
C448     C      0.747080000000     0.940050000000     0.999990000000     0.427733   
C449     C      0.490340000000     0.739070000000     0.059120000000     0.434263   
C450     C      0.981990000000     0.737730000000     0.437160000000     0.448838   
C451     C      0.546320000000     0.739040000000     0.993700000000     0.437115   
C452     C      0.926130000000     0.737500000000     0.003120000000     0.445843   
C453     C      0.735960000000     0.689520000000     0.497450000000     0.446246   
C454     C      0.736590000000     0.810300000000     0.504970000000     0.445351   
C455     C      0.675680000000     0.750540000000     0.001260000000     0.429132   
C456     C      0.796610000000     0.749590000000     0.000960000000     0.439179   
C457     C      0.846670000000     0.739130000000     0.472280000000    -0.0105055  
C458     C      0.846630000000     0.766090000000     0.026600000000    -0.0360946  
C459     C      0.874990000000     0.718930000000     0.482780000000    -0.00430354 
C460     C      0.877450000000     0.748090000000     0.035300000000     0.0969942  
C461     C      0.624970000000     0.737980000000     0.027900000000    -0.0112044  
C462     C      0.626380000000     0.771370000000     0.477600000000    -0.0335877  
C463     C      0.596890000000     0.719230000000     0.014340000000    -0.00821757 
C464     C      0.596280000000     0.754270000000     0.465330000000     0.093529   
C465     C      0.726850000000     0.891260000000     0.474560000000    -0.0113028  
C466     C      0.771560000000     0.889020000000     0.514680000000    -0.0332222  
C467     C      0.712970000000     0.860750000000     0.988690000000    -0.00787671 
C468     C      0.755900000000     0.860000000000     0.031040000000     0.0955441  
C469     C      0.726420000000     0.610040000000     0.029850000000    -0.0110092  
C470     C      0.772610000000     0.611620000000     0.491480000000    -0.0324192  
C471     C      0.712050000000     0.639120000000     0.013450000000    -0.00717203 
C472     C      0.756970000000     0.639590000000     0.473220000000     0.0947826  
C473     C      0.771650000000     0.983310000000     0.391700000000     0.000148141
C474     C      0.723170000000     0.018540000000     0.390350000000    -0.0398609  
C475     C      0.785060000000     0.500880000000     0.362750000000    -0.00615055 
C476     C      0.737180000000     0.536360000000     0.360790000000     0.094047   
C477     C      0.771870000000     0.510390000000     0.116310000000    -0.0118439  
C478     C      0.719000000000     0.982530000000     0.115050000000    -0.0295357  
C479     C      0.783320000000     0.487300000000     0.142080000000    -0.0061275  
C480     C      0.730810000000     0.959200000000     0.141170000000     0.0923782  
C481     C      0.525690000000     0.744240000000     0.366460000000    -0.0172843  
C482     C      0.478560000000     0.780610000000     0.364440000000    -0.0366423  
C483     C      0.006490000000     0.720420000000     0.386870000000    -0.00658652 
C484     C      0.959330000000     0.756610000000     0.384050000000     0.0979093  
C485     C      0.511540000000     0.765260000000     0.106980000000    -0.0101844  
C486     C      0.979330000000     0.714140000000     0.111540000000    -0.0306239  
C487     C      0.522090000000     0.755960000000     0.140860000000    -0.00221301 
C488     C      0.968920000000     0.726880000000     0.144680000000     0.094451   
C489     C      0.643480000000     0.511940000000     0.235950000000    -0.00461708 
C490     C      0.646410000000     0.965510000000     0.273930000000    -0.0323098  
C491     C      0.617860000000     0.526850000000     0.256760000000    -0.0134293  
C492     C      0.619850000000     0.980380000000     0.294710000000     0.0947684  
C493     C      0.896810000000     0.988490000000     0.280100000000     0.00288872 
C494     C      0.900410000000     0.516830000000     0.225940000000    -0.0271521  
C495     C      0.866780000000     0.974460000000     0.265460000000    -0.00530232 
C496     C      0.864770000000     0.524920000000     0.231360000000     0.0947311  
C497     C      0.520470000000     0.863230000000     0.224580000000    -0.00958622 
C498     C      0.967860000000     0.864240000000     0.252510000000    -0.0328448  
C499     C      0.529960000000     0.894410000000     0.241040000000    -0.0101485  
C500     C      0.978180000000     0.893680000000     0.272160000000     0.0953621  
C501     C      0.977340000000     0.642270000000     0.276470000000    -0.0133619  
C502     C      0.527260000000     0.643440000000     0.242830000000    -0.0351124  
C503     C      0.990720000000     0.613880000000     0.295530000000    -0.00762482 
C504     C      0.540060000000     0.615010000000     0.262140000000     0.0954289  
C505     C      0.010870000000     0.564230000000     0.771840000000     0.441649   
C506     C      0.505400000000     0.943810000000     0.758140000000     0.445718   
C507     C      0.947940000000     0.506040000000     0.758750000000     0.437877   
C508     C      0.568120000000     0.501330000000     0.771290000000     0.448234   
C509     C      0.497380000000     0.813930000000     0.747070000000     0.429848   
C510     C      0.501840000000     0.693260000000     0.759880000000     0.426844   
C511     C      0.002460000000     0.760210000000     0.814570000000     0.431409   
C512     C      0.996520000000     0.747450000000     0.692960000000     0.437509   
C513     C      0.815980000000     0.998090000000     0.749930000000     0.442104   
C514     C      0.695350000000     0.991850000000     0.754340000000     0.450347   
C515     C      0.757290000000     0.508180000000     0.811710000000     0.445625   
C516     C      0.754200000000     0.481650000000     0.692200000000     0.450105   
C517     C      0.746430000000     0.497360000000     0.564410000000     0.426988   
C518     C      0.748150000000     0.003120000000     0.941940000000     0.418765   
C519     C      0.747660000000     0.560740000000     0.506220000000     0.430137   
C520     C      0.747080000000     0.940050000000     0.499990000000     0.427708   
C521     C      0.490340000000     0.739070000000     0.559120000000     0.434258   
C522     C      0.981990000000     0.737730000000     0.937170000000     0.449033   
C523     C      0.546320000000     0.739040000000     0.493700000000     0.437111   
C524     C      0.926130000000     0.737500000000     0.503120000000     0.445865   
C525     C      0.735960000000     0.689520000000     0.997450000000     0.446275   
C526     C      0.736590000000     0.810300000000     0.004970000000     0.445326   
C527     C      0.675680000000     0.750540000000     0.501260000000     0.429158   
C528     C      0.796610000000     0.749590000000     0.500960000000     0.439206   
C529     C      0.846670000000     0.739130000000     0.972280000000    -0.010508   
C530     C      0.846630000000     0.766090000000     0.526600000000    -0.0360915  
C531     C      0.874990000000     0.718930000000     0.982780000000    -0.0042494  
C532     C      0.877450000000     0.748090000000     0.535300000000     0.096995   
C533     C      0.624970000000     0.737980000000     0.527900000000    -0.0112061  
C534     C      0.626380000000     0.771370000000     0.977600000000    -0.0335713  
C535     C      0.596890000000     0.719230000000     0.514340000000    -0.00820007 
C536     C      0.596280000000     0.754270000000     0.965330000000     0.0935275  
C537     C      0.726850000000     0.891260000000     0.974560000000    -0.0112913  
C538     C      0.771560000000     0.889020000000     0.014680000000    -0.0332642  
C539     C      0.712970000000     0.860750000000     0.488700000000    -0.00787341 
C540     C      0.755900000000     0.860000000000     0.531040000000     0.0955375  
C541     C      0.726420000000     0.610040000000     0.529850000000    -0.0110206  
C542     C      0.772610000000     0.611620000000     0.991480000000    -0.0323725  
C543     C      0.712050000000     0.639120000000     0.513450000000    -0.00712671 
C544     C      0.756970000000     0.639590000000     0.973220000000     0.0947749  
C545     C      0.771650000000     0.983310000000     0.891700000000     0.000147023
C546     C      0.723170000000     0.018540000000     0.890350000000    -0.039861   
C547     C      0.785060000000     0.500880000000     0.862750000000    -0.00615051 
C548     C      0.737180000000     0.536360000000     0.860790000000     0.0940472  
C549     C      0.771870000000     0.510390000000     0.616310000000    -0.0118438  
C550     C      0.719000000000     0.982530000000     0.615050000000    -0.0295356  
C551     C      0.783320000000     0.487300000000     0.642080000000    -0.00612757 
C552     C      0.730810000000     0.959200000000     0.641170000000     0.0923782  
C553     C      0.525690000000     0.744240000000     0.866460000000    -0.0172799  
C554     C      0.478560000000     0.780610000000     0.864440000000    -0.0366316  
C555     C      0.006490000000     0.720420000000     0.886870000000    -0.00660333 
C556     C      0.959330000000     0.756610000000     0.884050000000     0.0978692  
C557     C      0.511540000000     0.765260000000     0.606980000000    -0.0101851  
C558     C      0.979330000000     0.714140000000     0.611540000000    -0.0306234  
C559     C      0.522090000000     0.755960000000     0.640860000000    -0.00221232 
C560     C      0.968920000000     0.726880000000     0.644680000000     0.0944538  
C561     C      0.643480000000     0.511940000000     0.735950000000    -0.00461716 
C562     C      0.646410000000     0.965510000000     0.773930000000    -0.0323114  
C563     C      0.617860000000     0.526850000000     0.756760000000    -0.0134291  
C564     C      0.619850000000     0.980380000000     0.794710000000     0.094775   
C565     C      0.896810000000     0.988490000000     0.780100000000     0.00289937 
C566     C      0.900410000000     0.516830000000     0.725940000000    -0.0271605  
C567     C      0.866780000000     0.974460000000     0.765460000000    -0.00530622 
C568     C      0.864770000000     0.524920000000     0.731360000000     0.0947339  
C569     C      0.520470000000     0.863230000000     0.724580000000    -0.0095863  
C570     C      0.967860000000     0.864240000000     0.752510000000    -0.0328448  
C571     C      0.529960000000     0.894410000000     0.741040000000    -0.0101486  
C572     C      0.978180000000     0.893680000000     0.772160000000     0.0953616  
C573     C      0.977340000000     0.642270000000     0.776470000000    -0.013362   
C574     C      0.527260000000     0.643440000000     0.742830000000    -0.0350972  
C575     C      0.990720000000     0.613880000000     0.795530000000    -0.00762583 
C576     C      0.540060000000     0.615010000000     0.762150000000     0.0954455  
H1       H      0.366050000000     0.196890000000     0.494450000000     0.057415   
H2       H      0.331610000000     0.224920000000     0.455690000000     0.0659781  
H3       H      0.369710000000     0.226230000000     0.048300000000     0.0408101  
H4       H      0.331990000000     0.269300000000     0.048600000000     0.0828206  
H5       H      0.389060000000     0.211970000000     0.461280000000     0.0593036  
H6       H      0.355560000000     0.260260000000     0.458960000000     0.0647644  
H7       H      0.352670000000     0.290210000000     0.017590000000     0.0838999  
H8       H      0.106100000000     0.198280000000     0.500940000000     0.0453588  
H9       H      0.139590000000     0.221860000000     0.043070000000     0.0453692  
H10      H      0.104920000000     0.234240000000     0.450090000000     0.0368493  
H11      H      0.141660000000     0.277890000000     0.456830000000     0.0689883  
H12      H      0.082110000000     0.210480000000     0.034690000000     0.0428823  
H13      H      0.115730000000     0.257480000000     0.043360000000     0.0478902  
H14      H      0.119610000000     0.293870000000     0.989800000000     0.0668441  
H15      H      0.193570000000     0.367540000000     0.005440000000     0.0454439  
H16      H      0.207290000000     0.406670000000     0.465690000000     0.0497973  
H17      H      0.239320000000     0.369260000000     0.049690000000     0.0401098  
H18      H      0.284100000000     0.403480000000     0.533140000000     0.0705925  
H19      H      0.202120000000     0.346380000000     0.469090000000     0.0474856  
H20      H      0.241540000000     0.384640000000     0.453390000000     0.0477483  
H21      H      0.289270000000     0.380910000000     0.496660000000     0.0714017  
H22      H      0.193900000000     0.130660000000     0.496060000000     0.0445151  
H23      H      0.207110000000     0.094500000000     0.039060000000     0.0473934  
H24      H      0.241610000000     0.129120000000     0.454160000000     0.0412634  
H25      H      0.286260000000     0.096740000000     0.474220000000     0.0691441  
H26      H      0.199620000000     0.154000000000     0.031660000000     0.0434063  
H27      H      0.240260000000     0.118410000000     0.050980000000     0.0473549  
H28      H      0.289350000000     0.120910000000     0.009870000000     0.0689755  
H29      H      0.300640000000     0.020260000000     0.371770000000     0.0502692  
H30      H      0.291530000000     0.975240000000     0.407240000000     0.0494262  
H31      H      0.251270000000     0.056670000000     0.370370000000     0.0425018  
H32      H      0.209490000000     0.535600000000     0.405380000000     0.0693939  
H33      H      0.300090000000     0.984420000000     0.348330000000     0.0528563  
H34      H      0.259240000000     0.461680000000     0.382860000000     0.0492272  
H35      H      0.206630000000     0.499640000000     0.382140000000     0.0700499  
H36      H      0.295590000000     0.967240000000     0.129880000000     0.0487456  
H37      H      0.292360000000     0.017920000000     0.101340000000     0.0514037  
H38      H      0.241540000000     0.438790000000     0.128000000000     0.0408064  
H39      H      0.202260000000     0.469820000000     0.098860000000     0.0631179  
H40      H      0.300890000000     0.999380000000     0.157920000000     0.0436198  
H41      H      0.262540000000     0.031960000000     0.128540000000     0.0519497  
H42      H      0.205910000000     0.502350000000     0.126740000000     0.0656802  
H43      H      0.495530000000     0.202680000000     0.370430000000     0.0451824  
H44      H      0.542980000000     0.231050000000     0.351300000000     0.0525664  
H45      H      0.448870000000     0.240090000000     0.365980000000     0.0401001  
H46      H      0.962740000000     0.294090000000     0.347900000000     0.0673025  
H47      H      0.522930000000     0.207640000000     0.403330000000     0.0481171  
H48      H      0.039020000000     0.260100000000     0.383010000000     0.0653888  
H49      H      0.989820000000     0.297910000000     0.381140000000     0.0742446  
H50      H      0.040030000000     0.236650000000     0.139200000000     0.0439497  
H51      H      0.032900000000     0.270920000000     0.092340000000     0.0442053  
H52      H      0.463270000000     0.205510000000     0.159550000000     0.0367929  
H53      H      0.497490000000     0.195300000000     0.115110000000     0.0502973  
H54      H      0.033780000000     0.276850000000     0.152270000000     0.0472618  
H55      H      0.997080000000     0.287300000000     0.107820000000     0.0686237  
H56      H      0.458750000000     0.202860000000     0.099250000000     0.0643134  
H57      H      0.129560000000     0.042900000000     0.274410000000     0.0612727  
H58      H      0.157540000000     0.031040000000     0.224210000000     0.0597699  
H59      H      0.132020000000     0.995020000000     0.313330000000     0.0507746  
H60      H      0.162880000000     0.452120000000     0.289860000000     0.067318   
H61      H      0.102220000000     0.041780000000     0.241420000000     0.0649881  
H62      H      0.131710000000     0.498010000000     0.216600000000     0.0572637  
H63      H      0.135680000000     0.448340000000     0.256740000000     0.0690301  
H64      H      0.373330000000     0.456070000000     0.247440000000     0.0582437  
H65      H      0.410540000000     0.469040000000     0.291690000000     0.0653395  
H66      H      0.353610000000     0.026180000000     0.207070000000     0.0316288  
H67      H      0.402050000000     0.998060000000     0.207170000000     0.0605557  
H68      H      0.352930000000     0.462620000000     0.284850000000     0.0511178  
H69      H      0.390450000000     0.505490000000     0.299490000000     0.0639542  
H70      H      0.413320000000     0.037840000000     0.216320000000     0.0696239  
H71      H      0.046240000000     0.388530000000     0.261220000000     0.0569424  
H72      H      0.041980000000     0.348480000000     0.220500000000     0.0501037  
H73      H      0.489260000000     0.384940000000     0.294830000000     0.0447299  
H74      H      0.451300000000     0.349610000000     0.267150000000     0.0728821  
H75      H      0.043560000000     0.409390000000     0.223810000000     0.0514424  
H76      H      0.010560000000     0.369210000000     0.200550000000     0.0490604  
H77      H      0.455230000000     0.371900000000     0.230360000000     0.0738252  
H78      H      0.503100000000     0.123130000000     0.317200000000     0.0462192  
H79      H      0.462790000000     0.157200000000     0.292900000000     0.0513882  
H80      H      0.052730000000     0.125530000000     0.283160000000     0.0395563  
H81      H      0.047370000000     0.158900000000     0.235450000000     0.0708946  
H82      H      0.470810000000     0.098430000000     0.303570000000     0.0492729  
H83      H      0.461550000000     0.132990000000     0.257220000000     0.0558759  
H84      H      0.015660000000     0.134710000000     0.220510000000     0.0682891  
H85      H      0.366050000000     0.196890000000     0.994450000000     0.057412   
H86      H      0.331610000000     0.224920000000     0.955690000000     0.0659794  
H87      H      0.369710000000     0.226230000000     0.548300000000     0.0408132  
H88      H      0.331990000000     0.269300000000     0.548600000000     0.08282    
H89      H      0.389060000000     0.211970000000     0.961270000000     0.0592896  
H90      H      0.355560000000     0.260260000000     0.958960000000     0.0647692  
H91      H      0.352670000000     0.290210000000     0.517590000000     0.0839027  
H92      H      0.106100000000     0.198280000000     0.000940000000     0.0453555  
H93      H      0.139590000000     0.221860000000     0.543070000000     0.0453704  
H94      H      0.104920000000     0.234240000000     0.950090000000     0.0368531  
H95      H      0.141660000000     0.277890000000     0.956830000000     0.0689872  
H96      H      0.082110000000     0.210480000000     0.534690000000     0.0428834  
H97      H      0.115730000000     0.257480000000     0.543360000000     0.0478945  
H98      H      0.119610000000     0.293870000000     0.489800000000     0.0668394  
H99      H      0.193570000000     0.367540000000     0.505440000000     0.0454549  
H100     H      0.207290000000     0.406670000000     0.965690000000     0.0497984  
H101     H      0.239320000000     0.369260000000     0.549690000000     0.0401129  
H102     H      0.284100000000     0.403480000000     0.033140000000     0.0705983  
H103     H      0.202120000000     0.346380000000     0.969090000000     0.0474963  
H104     H      0.241540000000     0.384640000000     0.953390000000     0.0477482  
H105     H      0.289270000000     0.380910000000     0.996660000000     0.0714287  
H106     H      0.193900000000     0.130660000000     0.996060000000     0.044542   
H107     H      0.207110000000     0.094500000000     0.539060000000     0.0473983  
H108     H      0.241610000000     0.129120000000     0.954160000000     0.0412673  
H109     H      0.286260000000     0.096740000000     0.974220000000     0.0691408  
H110     H      0.199620000000     0.154000000000     0.531660000000     0.0434003  
H111     H      0.240260000000     0.118410000000     0.550980000000     0.0473587  
H112     H      0.289350000000     0.120910000000     0.509870000000     0.0689999  
H113     H      0.300640000000     0.020260000000     0.871770000000     0.0502701  
H114     H      0.291530000000     0.975240000000     0.907240000000     0.0494283  
H115     H      0.251270000000     0.056670000000     0.870370000000     0.0425023  
H116     H      0.209490000000     0.535600000000     0.905380000000     0.069396   
H117     H      0.300090000000     0.984420000000     0.848330000000     0.0528563  
H118     H      0.259240000000     0.461680000000     0.882860000000     0.0492278  
H119     H      0.206630000000     0.499640000000     0.882140000000     0.0700508  
H120     H      0.295590000000     0.967240000000     0.629880000000     0.048746   
H121     H      0.292360000000     0.017920000000     0.601340000000     0.0514044  
H122     H      0.241540000000     0.438790000000     0.628000000000     0.0408068  
H123     H      0.202260000000     0.469820000000     0.598860000000     0.0631192  
H124     H      0.300890000000     0.999380000000     0.657920000000     0.0436199  
H125     H      0.262540000000     0.031960000000     0.628540000000     0.0519498  
H126     H      0.205910000000     0.502350000000     0.626740000000     0.0656805  
H127     H      0.495530000000     0.202680000000     0.870430000000     0.0451865  
H128     H      0.542980000000     0.231050000000     0.851300000000     0.0525654  
H129     H      0.448870000000     0.240090000000     0.865980000000     0.0401054  
H130     H      0.962740000000     0.294090000000     0.847900000000     0.0672987  
H131     H      0.522930000000     0.207640000000     0.903330000000     0.0481289  
H132     H      0.039020000000     0.260100000000     0.883010000000     0.0653895  
H133     H      0.989820000000     0.297910000000     0.881140000000     0.0742451  
H134     H      0.040030000000     0.236650000000     0.639200000000     0.0439498  
H135     H      0.032900000000     0.270920000000     0.592340000000     0.0442075  
H136     H      0.463270000000     0.205510000000     0.659560000000     0.0368057  
H137     H      0.497490000000     0.195300000000     0.615110000000     0.0502978  
H138     H      0.033780000000     0.276850000000     0.652270000000     0.0472619  
H139     H      0.997080000000     0.287300000000     0.607820000000     0.0686261  
H140     H      0.458750000000     0.202860000000     0.599250000000     0.064315   
H141     H      0.129560000000     0.042900000000     0.774410000000     0.0612729  
H142     H      0.157540000000     0.031040000000     0.724210000000     0.0597698  
H143     H      0.132020000000     0.995020000000     0.813330000000     0.0507735  
H144     H      0.162880000000     0.452120000000     0.789860000000     0.0673189  
H145     H      0.102220000000     0.041780000000     0.741420000000     0.0649891  
H146     H      0.131710000000     0.498010000000     0.716600000000     0.0572644  
H147     H      0.135680000000     0.448340000000     0.756740000000     0.0690335  
H148     H      0.373330000000     0.456070000000     0.747440000000     0.0582441  
H149     H      0.410540000000     0.469040000000     0.791690000000     0.0653379  
H150     H      0.353610000000     0.026180000000     0.707070000000     0.0316284  
H151     H      0.402050000000     0.998060000000     0.707170000000     0.0605557  
H152     H      0.352930000000     0.462620000000     0.784850000000     0.0511187  
H153     H      0.390450000000     0.505490000000     0.799490000000     0.0639536  
H154     H      0.413320000000     0.037840000000     0.716320000000     0.0696246  
H155     H      0.046240000000     0.388530000000     0.761220000000     0.0569444  
H156     H      0.041980000000     0.348480000000     0.720500000000     0.0501041  
H157     H      0.489260000000     0.384940000000     0.794830000000     0.0447302  
H158     H      0.451300000000     0.349610000000     0.767150000000     0.072882   
H159     H      0.043560000000     0.409390000000     0.723810000000     0.0514443  
H160     H      0.010560000000     0.369210000000     0.700550000000     0.0490609  
H161     H      0.455230000000     0.371900000000     0.730360000000     0.0738251  
H162     H      0.503100000000     0.123130000000     0.817200000000     0.046218   
H163     H      0.462790000000     0.157200000000     0.792900000000     0.0513881  
H164     H      0.052730000000     0.125530000000     0.783170000000     0.039545   
H165     H      0.047370000000     0.158900000000     0.735450000000     0.0708924  
H166     H      0.470810000000     0.098430000000     0.803570000000     0.0492738  
H167     H      0.461550000000     0.132990000000     0.757220000000     0.055876   
H168     H      0.015660000000     0.134710000000     0.720510000000     0.0682876  
H169     H      0.366050000000     0.696880000000     0.494450000000     0.0574946  
H170     H      0.331610000000     0.724920000000     0.455690000000     0.0659992  
H171     H      0.369710000000     0.726230000000     0.048300000000     0.0408466  
H172     H      0.331990000000     0.769300000000     0.048600000000     0.0828655  
H173     H      0.389060000000     0.711970000000     0.461280000000     0.0593556  
H174     H      0.355560000000     0.760260000000     0.458960000000     0.0648126  
H175     H      0.352670000000     0.790200000000     0.017590000000     0.0840129  
H176     H      0.106100000000     0.698280000000     0.500940000000     0.0454968  
H177     H      0.139590000000     0.721860000000     0.043070000000     0.045427   
H178     H      0.104920000000     0.734240000000     0.450090000000     0.0368781  
H179     H      0.141660000000     0.777890000000     0.456830000000     0.0690745  
H180     H      0.082110000000     0.710480000000     0.034690000000     0.0429944  
H181     H      0.115730000000     0.757480000000     0.043360000000     0.0479361  
H182     H      0.119610000000     0.793870000000     0.989800000000     0.0670002  
H183     H      0.193570000000     0.867540000000     0.005440000000     0.045672   
H184     H      0.207290000000     0.906670000000     0.465690000000     0.0503612  
H185     H      0.239320000000     0.869270000000     0.049690000000     0.0402025  
H186     H      0.284100000000     0.903480000000     0.533140000000     0.0710469  
H187     H      0.202120000000     0.846380000000     0.469090000000     0.0475897  
H188     H      0.241540000000     0.884640000000     0.453390000000     0.0480226  
H189     H      0.289270000000     0.880910000000     0.496660000000     0.0717018  
H190     H      0.193900000000     0.630660000000     0.496060000000     0.0446936  
H191     H      0.207110000000     0.594500000000     0.039060000000     0.0478213  
H192     H      0.241610000000     0.629120000000     0.454160000000     0.0413218  
H193     H      0.286260000000     0.596740000000     0.474220000000     0.069415   
H194     H      0.199620000000     0.654000000000     0.031660000000     0.0435112  
H195     H      0.240260000000     0.618410000000     0.050980000000     0.0475349  
H196     H      0.289350000000     0.620920000000     0.009870000000     0.069135   
H197     H      0.300640000000     0.520260000000     0.371770000000     0.0485232  
H198     H      0.291530000000     0.475240000000     0.407240000000     0.0506086  
H199     H      0.251270000000     0.556670000000     0.370370000000     0.0425664  
H200     H      0.209490000000     0.035600000000     0.405380000000     0.0703544  
H201     H      0.300090000000     0.484420000000     0.348330000000     0.0462389  
H202     H      0.259240000000     0.961680000000     0.382860000000     0.0477926  
H203     H      0.206630000000     0.999640000000     0.382140000000     0.0760229  
H204     H      0.295590000000     0.467240000000     0.129880000000     0.049231   
H205     H      0.292360000000     0.517920000000     0.101340000000     0.0508816  
H206     H      0.241540000000     0.938790000000     0.128000000000     0.040978   
H207     H      0.202260000000     0.969820000000     0.098860000000     0.0624296  
H208     H      0.300890000000     0.499380000000     0.157920000000     0.0427992  
H209     H      0.262540000000     0.531960000000     0.128540000000     0.0511924  
H210     H      0.205910000000     0.002350000000     0.126740000000     0.0599039  
H211     H      0.495530000000     0.702680000000     0.370430000000     0.0452527  
H212     H      0.542980000000     0.731050000000     0.351300000000     0.0526079  
H213     H      0.448870000000     0.740090000000     0.365980000000     0.0401106  
H214     H      0.962740000000     0.794090000000     0.347900000000     0.0673771  
H215     H      0.522930000000     0.707640000000     0.403330000000     0.0482053  
H216     H      0.039020000000     0.760100000000     0.383010000000     0.0654364  
H217     H      0.989820000000     0.797910000000     0.381140000000     0.0743683  
H218     H      0.040030000000     0.736650000000     0.139200000000     0.0439995  
H219     H      0.032900000000     0.770920000000     0.092340000000     0.0442947  
H220     H      0.463270000000     0.705510000000     0.159550000000     0.036848   
H221     H      0.497490000000     0.695300000000     0.115110000000     0.0504352  
H222     H      0.033780000000     0.776840000000     0.152270000000     0.047342   
H223     H      0.997080000000     0.787300000000     0.107820000000     0.0687339  
H224     H      0.458750000000     0.702860000000     0.099250000000     0.0644261  
H225     H      0.129560000000     0.542900000000     0.274410000000     0.062598   
H226     H      0.157540000000     0.531040000000     0.224210000000     0.0583407  
H227     H      0.132020000000     0.495020000000     0.313330000000     0.0494715  
H228     H      0.162880000000     0.952120000000     0.289860000000     0.0676687  
H229     H      0.102220000000     0.541780000000     0.241420000000     0.0659515  
H230     H      0.131710000000     0.998010000000     0.216600000000     0.0638313  
H231     H      0.135680000000     0.948340000000     0.256740000000     0.0696125  
H232     H      0.373330000000     0.956060000000     0.247440000000     0.0592362  
H233     H      0.410540000000     0.969030000000     0.291690000000     0.0643171  
H234     H      0.353610000000     0.526180000000     0.207070000000     0.0329213  
H235     H      0.402050000000     0.498060000000     0.207170000000     0.0550101  
H236     H      0.352930000000     0.962620000000     0.284850000000     0.0522264  
H237     H      0.390450000000     0.005490000000     0.299490000000     0.0577937  
H238     H      0.413320000000     0.537840000000     0.216320000000     0.0687624  
H239     H      0.046240000000     0.888530000000     0.261220000000     0.0570947  
H240     H      0.041980000000     0.848480000000     0.220500000000     0.0501967  
H241     H      0.489260000000     0.884940000000     0.294830000000     0.0449059  
H242     H      0.451300000000     0.849610000000     0.267150000000     0.0729156  
H243     H      0.043560000000     0.909390000000     0.223810000000     0.0519693  
H244     H      0.010560000000     0.869210000000     0.200550000000     0.0493444  
H245     H      0.455230000000     0.871900000000     0.230360000000     0.0739935  
H246     H      0.503100000000     0.623130000000     0.317200000000     0.0464122  
H247     H      0.462790000000     0.657200000000     0.292900000000     0.0514323  
H248     H      0.052730000000     0.625530000000     0.283160000000     0.0396546  
H249     H      0.047370000000     0.658900000000     0.235450000000     0.0709356  
H250     H      0.470810000000     0.598430000000     0.303570000000     0.0494295  
H251     H      0.461550000000     0.633000000000     0.257220000000     0.0559321  
H252     H      0.015660000000     0.634710000000     0.220510000000     0.0684025  
H253     H      0.366050000000     0.696880000000     0.994450000000     0.0574914  
H254     H      0.331610000000     0.724920000000     0.955690000000     0.0660005  
H255     H      0.369710000000     0.726230000000     0.548300000000     0.0408497  
H256     H      0.331990000000     0.769300000000     0.548600000000     0.0828649  
H257     H      0.389060000000     0.711970000000     0.961270000000     0.0593417  
H258     H      0.355560000000     0.760260000000     0.958960000000     0.0648173  
H259     H      0.352670000000     0.790200000000     0.517590000000     0.0840158  
H260     H      0.106100000000     0.698280000000     0.000940000000     0.0454934  
H261     H      0.139590000000     0.721860000000     0.543070000000     0.0454282  
H262     H      0.104920000000     0.734240000000     0.950090000000     0.0368819  
H263     H      0.141660000000     0.777890000000     0.956830000000     0.0690734  
H264     H      0.082110000000     0.710480000000     0.534690000000     0.0429954  
H265     H      0.115730000000     0.757480000000     0.543360000000     0.0479403  
H266     H      0.119610000000     0.793870000000     0.489800000000     0.0669955  
H267     H      0.193570000000     0.867540000000     0.505440000000     0.0456828  
H268     H      0.207290000000     0.906670000000     0.965690000000     0.0503622  
H269     H      0.239320000000     0.869270000000     0.549690000000     0.0402056  
H270     H      0.284100000000     0.903480000000     0.033140000000     0.0710526  
H271     H      0.202120000000     0.846380000000     0.969090000000     0.0476005  
H272     H      0.241540000000     0.884640000000     0.953390000000     0.0480225  
H273     H      0.289270000000     0.880910000000     0.996660000000     0.0717284  
H274     H      0.193900000000     0.630660000000     0.996060000000     0.0447203  
H275     H      0.207110000000     0.594500000000     0.539060000000     0.0478262  
H276     H      0.241610000000     0.629120000000     0.954160000000     0.0413257  
H277     H      0.286260000000     0.596740000000     0.974220000000     0.0694117  
H278     H      0.199620000000     0.654000000000     0.531660000000     0.0435052  
H279     H      0.240260000000     0.618410000000     0.550980000000     0.0475387  
H280     H      0.289350000000     0.620920000000     0.509870000000     0.0691593  
H281     H      0.300640000000     0.520260000000     0.871770000000     0.0485243  
H282     H      0.291530000000     0.475240000000     0.907240000000     0.0506106  
H283     H      0.251270000000     0.556670000000     0.870370000000     0.0425669  
H284     H      0.209490000000     0.035600000000     0.905380000000     0.0703564  
H285     H      0.300090000000     0.484420000000     0.848330000000     0.0462393  
H286     H      0.259240000000     0.961680000000     0.882860000000     0.0477932  
H287     H      0.206630000000     0.999640000000     0.882140000000     0.0760234  
H288     H      0.295590000000     0.467240000000     0.629880000000     0.0492315  
H289     H      0.292360000000     0.517920000000     0.601340000000     0.0508822  
H290     H      0.241540000000     0.938790000000     0.628000000000     0.0409785  
H291     H      0.202260000000     0.969820000000     0.598860000000     0.0624309  
H292     H      0.300890000000     0.499380000000     0.657920000000     0.0427994  
H293     H      0.262540000000     0.531960000000     0.628540000000     0.0511925  
H294     H      0.205910000000     0.002350000000     0.626740000000     0.0599041  
H295     H      0.495530000000     0.702680000000     0.870430000000     0.0452569  
H296     H      0.542980000000     0.731050000000     0.851300000000     0.0526069  
H297     H      0.448870000000     0.740090000000     0.865980000000     0.0401159  
H298     H      0.962740000000     0.794090000000     0.847900000000     0.0673733  
H299     H      0.522930000000     0.707640000000     0.903330000000     0.0482171  
H300     H      0.039020000000     0.760100000000     0.883010000000     0.0654371  
H301     H      0.989820000000     0.797910000000     0.881140000000     0.0743688  
H302     H      0.040030000000     0.736650000000     0.639200000000     0.0439997  
H303     H      0.032900000000     0.770920000000     0.592340000000     0.0442969  
H304     H      0.463270000000     0.705510000000     0.659560000000     0.0368608  
H305     H      0.497490000000     0.695300000000     0.615110000000     0.0504357  
H306     H      0.033780000000     0.776840000000     0.652270000000     0.0473422  
H307     H      0.997080000000     0.787300000000     0.607820000000     0.0687363  
H308     H      0.458750000000     0.702860000000     0.599250000000     0.0644278  
H309     H      0.129560000000     0.542900000000     0.774410000000     0.0625981  
H310     H      0.157540000000     0.531040000000     0.724210000000     0.0583407  
H311     H      0.132020000000     0.495020000000     0.813330000000     0.0494705  
H312     H      0.162880000000     0.952120000000     0.789860000000     0.0676696  
H313     H      0.102220000000     0.541780000000     0.741420000000     0.0659524  
H314     H      0.131710000000     0.998010000000     0.716600000000     0.0638319  
H315     H      0.135680000000     0.948340000000     0.756740000000     0.0696159  
H316     H      0.373330000000     0.956060000000     0.747440000000     0.0592366  
H317     H      0.410540000000     0.969030000000     0.791690000000     0.0643155  
H318     H      0.353610000000     0.526180000000     0.707070000000     0.0329208  
H319     H      0.402050000000     0.498060000000     0.707170000000     0.0550102  
H320     H      0.352930000000     0.962620000000     0.784850000000     0.0522273  
H321     H      0.390450000000     0.005490000000     0.799490000000     0.0577934  
H322     H      0.413320000000     0.537840000000     0.716320000000     0.0687631  
H323     H      0.046240000000     0.888530000000     0.761220000000     0.0570967  
H324     H      0.041980000000     0.848480000000     0.720500000000     0.050197   
H325     H      0.489260000000     0.884940000000     0.794830000000     0.0449063  
H326     H      0.451300000000     0.849610000000     0.767150000000     0.0729155  
H327     H      0.043560000000     0.909390000000     0.723810000000     0.0519712  
H328     H      0.010560000000     0.869210000000     0.700550000000     0.0493448  
H329     H      0.455230000000     0.871900000000     0.730360000000     0.0739934  
H330     H      0.503100000000     0.623130000000     0.817200000000     0.0464109  
H331     H      0.462790000000     0.657200000000     0.792900000000     0.0514322  
H332     H      0.052730000000     0.625530000000     0.783170000000     0.0396433  
H333     H      0.047370000000     0.658900000000     0.735450000000     0.0709334  
H334     H      0.470810000000     0.598430000000     0.803570000000     0.0494304  
H335     H      0.461550000000     0.633000000000     0.757220000000     0.0559322  
H336     H      0.015660000000     0.634710000000     0.720510000000     0.068401   
H337     H      0.866050000000     0.196890000000     0.494450000000     0.0574166  
H338     H      0.831610000000     0.224920000000     0.455690000000     0.065978   
H339     H      0.869720000000     0.226230000000     0.048300000000     0.0408108  
H340     H      0.831990000000     0.269300000000     0.048600000000     0.0828211  
H341     H      0.889060000000     0.211970000000     0.461280000000     0.0593039  
H342     H      0.855560000000     0.260260000000     0.458960000000     0.0647643  
H343     H      0.852670000000     0.290210000000     0.017590000000     0.0838994  
H344     H      0.606100000000     0.198280000000     0.500940000000     0.0453464  
H345     H      0.639590000000     0.221860000000     0.043070000000     0.0453648  
H346     H      0.604920000000     0.234240000000     0.450090000000     0.0368439  
H347     H      0.641660000000     0.277890000000     0.456830000000     0.0689856  
H348     H      0.582110000000     0.210480000000     0.034690000000     0.0428636  
H349     H      0.615730000000     0.257480000000     0.043360000000     0.0478826  
H350     H      0.619610000000     0.293870000000     0.989800000000     0.0668356  
H351     H      0.693570000000     0.367540000000     0.005440000000     0.0454295  
H352     H      0.707290000000     0.406670000000     0.465690000000     0.049794   
H353     H      0.739320000000     0.369260000000     0.049690000000     0.0401051  
H354     H      0.784100000000     0.403480000000     0.533140000000     0.0705926  
H355     H      0.702110000000     0.346380000000     0.469090000000     0.0474676  
H356     H      0.741540000000     0.384640000000     0.453390000000     0.0477509  
H357     H      0.789270000000     0.380910000000     0.496660000000     0.0714028  
H358     H      0.693900000000     0.130660000000     0.496060000000     0.0445081  
H359     H      0.707110000000     0.094500000000     0.039060000000     0.0473917  
H360     H      0.741610000000     0.129120000000     0.454160000000     0.041262   
H361     H      0.786260000000     0.096740000000     0.474220000000     0.0691457  
H362     H      0.699620000000     0.154000000000     0.031660000000     0.0434007  
H363     H      0.740250000000     0.118410000000     0.050980000000     0.0473577  
H364     H      0.789350000000     0.120910000000     0.009870000000     0.0689788  
H365     H      0.800640000000     0.020260000000     0.371770000000     0.0502636  
H366     H      0.791530000000     0.975240000000     0.407240000000     0.0494292  
H367     H      0.751270000000     0.056670000000     0.370370000000     0.0425021  
H368     H      0.709490000000     0.535600000000     0.405380000000     0.0693896  
H369     H      0.800090000000     0.984420000000     0.348330000000     0.0528322  
H370     H      0.759240000000     0.461680000000     0.382860000000     0.0492267  
H371     H      0.706630000000     0.499640000000     0.382140000000     0.0700464  
H372     H      0.795590000000     0.967240000000     0.129880000000     0.048746   
H373     H      0.792360000000     0.017920000000     0.101340000000     0.0514034  
H374     H      0.741540000000     0.438790000000     0.128000000000     0.0408054  
H375     H      0.702260000000     0.469820000000     0.098860000000     0.0631111  
H376     H      0.800890000000     0.999380000000     0.157920000000     0.0436154  
H377     H      0.762540000000     0.031960000000     0.128540000000     0.0519468  
H378     H      0.705910000000     0.502350000000     0.126740000000     0.0656754  
H379     H      0.995530000000     0.202680000000     0.370430000000     0.0450636  
H380     H      0.042980000000     0.231050000000     0.351300000000     0.0525893  
H381     H      0.948870000000     0.240090000000     0.365980000000     0.0400847  
H382     H      0.462740000000     0.294090000000     0.347900000000     0.0672936  
H383     H      0.022930000000     0.207640000000     0.403330000000     0.0481043  
H384     H      0.539020000000     0.260100000000     0.383010000000     0.0653513  
H385     H      0.489820000000     0.297910000000     0.381140000000     0.074237   
H386     H      0.540030000000     0.236650000000     0.139200000000     0.0439299  
H387     H      0.532900000000     0.270920000000     0.092340000000     0.0442277  
H388     H      0.963270000000     0.205510000000     0.159550000000     0.0367931  
H389     H      0.997500000000     0.195300000000     0.115110000000     0.0502815  
H390     H      0.533780000000     0.276850000000     0.152270000000     0.047235   
H391     H      0.497080000000     0.287300000000     0.107820000000     0.0687208  
H392     H      0.958750000000     0.202860000000     0.099250000000     0.0643101  
H393     H      0.629560000000     0.042900000000     0.274410000000     0.0612731  
H394     H      0.657540000000     0.031040000000     0.224210000000     0.0597648  
H395     H      0.632020000000     0.995020000000     0.313330000000     0.0507609  
H396     H      0.662880000000     0.452120000000     0.289860000000     0.0673242  
H397     H      0.602220000000     0.041780000000     0.241420000000     0.0649863  
H398     H      0.631710000000     0.498010000000     0.216600000000     0.0572571  
H399     H      0.635680000000     0.448340000000     0.256740000000     0.0690429  
H400     H      0.873330000000     0.456070000000     0.247440000000     0.0582421  
H401     H      0.910540000000     0.469040000000     0.291690000000     0.0653306  
H402     H      0.853610000000     0.026180000000     0.207070000000     0.031634   
H403     H      0.902040000000     0.998060000000     0.207170000000     0.0605164  
H404     H      0.852930000000     0.462620000000     0.284850000000     0.0511176  
H405     H      0.890450000000     0.505490000000     0.299490000000     0.0639505  
H406     H      0.913320000000     0.037840000000     0.216320000000     0.0696158  
H407     H      0.546240000000     0.388530000000     0.261220000000     0.0569195  
H408     H      0.541980000000     0.348480000000     0.220500000000     0.0501058  
H409     H      0.989260000000     0.384940000000     0.294830000000     0.0447327  
H410     H      0.951300000000     0.349610000000     0.267150000000     0.0728798  
H411     H      0.543560000000     0.409390000000     0.223810000000     0.0514264  
H412     H      0.510560000000     0.369210000000     0.200550000000     0.0490114  
H413     H      0.955230000000     0.371900000000     0.230360000000     0.0738073  
H414     H      0.003100000000     0.123130000000     0.317200000000     0.0463694  
H415     H      0.962790000000     0.157200000000     0.292900000000     0.0513695  
H416     H      0.552730000000     0.125530000000     0.283160000000     0.0395477  
H417     H      0.547370000000     0.158900000000     0.235450000000     0.0708939  
H418     H      0.970810000000     0.098430000000     0.303570000000     0.049296   
H419     H      0.961550000000     0.132990000000     0.257220000000     0.0558576  
H420     H      0.515660000000     0.134710000000     0.220510000000     0.068241   
H421     H      0.866050000000     0.196890000000     0.994450000000     0.0574134  
H422     H      0.831610000000     0.224920000000     0.955690000000     0.0659794  
H423     H      0.869720000000     0.226230000000     0.548300000000     0.0408139  
H424     H      0.831990000000     0.269300000000     0.548600000000     0.0828205  
H425     H      0.889060000000     0.211970000000     0.961270000000     0.0592899  
H426     H      0.855560000000     0.260260000000     0.958960000000     0.064769   
H427     H      0.852670000000     0.290210000000     0.517590000000     0.0839022  
H428     H      0.606100000000     0.198280000000     0.000940000000     0.0453432  
H429     H      0.639590000000     0.221860000000     0.543070000000     0.045366   
H430     H      0.604920000000     0.234240000000     0.950090000000     0.0368477  
H431     H      0.641660000000     0.277890000000     0.956830000000     0.0689845  
H432     H      0.582110000000     0.210480000000     0.534690000000     0.0428646  
H433     H      0.615730000000     0.257480000000     0.543360000000     0.0478868  
H434     H      0.619610000000     0.293870000000     0.489800000000     0.0668309  
H435     H      0.693570000000     0.367540000000     0.505440000000     0.0454401  
H436     H      0.707290000000     0.406670000000     0.965690000000     0.049795   
H437     H      0.739320000000     0.369260000000     0.549690000000     0.0401082  
H438     H      0.784100000000     0.403480000000     0.033140000000     0.0705983  
H439     H      0.702110000000     0.346380000000     0.969090000000     0.0474784  
H440     H      0.741540000000     0.384640000000     0.953390000000     0.0477508  
H441     H      0.789270000000     0.380910000000     0.996660000000     0.0714294  
H442     H      0.693900000000     0.130660000000     0.996060000000     0.0445346  
H443     H      0.707110000000     0.094500000000     0.539060000000     0.0473965  
H444     H      0.741610000000     0.129120000000     0.954160000000     0.0412659  
H445     H      0.786260000000     0.096740000000     0.974220000000     0.0691424  
H446     H      0.699620000000     0.154000000000     0.531660000000     0.0433947  
H447     H      0.740250000000     0.118410000000     0.550980000000     0.0473614  
H448     H      0.789350000000     0.120910000000     0.509870000000     0.0690028  
H449     H      0.800640000000     0.020260000000     0.871770000000     0.0502645  
H450     H      0.791530000000     0.975240000000     0.907240000000     0.0494313  
H451     H      0.751270000000     0.056670000000     0.870370000000     0.0425026  
H452     H      0.709490000000     0.535600000000     0.905380000000     0.0693917  
H453     H      0.800090000000     0.984420000000     0.848330000000     0.0528323  
H454     H      0.759240000000     0.461680000000     0.882860000000     0.0492272  
H455     H      0.706630000000     0.499640000000     0.882140000000     0.0700473  
H456     H      0.795590000000     0.967240000000     0.629880000000     0.0487465  
H457     H      0.792360000000     0.017920000000     0.601340000000     0.051404   
H458     H      0.741540000000     0.438790000000     0.628000000000     0.0408059  
H459     H      0.702260000000     0.469820000000     0.598860000000     0.0631124  
H460     H      0.800890000000     0.999380000000     0.657920000000     0.0436156  
H461     H      0.762540000000     0.031960000000     0.628540000000     0.0519468  
H462     H      0.705910000000     0.502350000000     0.626740000000     0.0656757  
H463     H      0.995530000000     0.202680000000     0.870430000000     0.0450675  
H464     H      0.042980000000     0.231050000000     0.851300000000     0.0525884  
H465     H      0.948870000000     0.240090000000     0.865980000000     0.04009    
H466     H      0.462740000000     0.294090000000     0.847900000000     0.0672898  
H467     H      0.022930000000     0.207640000000     0.903330000000     0.0481161  
H468     H      0.539020000000     0.260100000000     0.883010000000     0.0653519  
H469     H      0.489820000000     0.297910000000     0.881140000000     0.0742375  
H470     H      0.540030000000     0.236650000000     0.639200000000     0.04393    
H471     H      0.532900000000     0.270920000000     0.592340000000     0.04423    
H472     H      0.963270000000     0.205510000000     0.659560000000     0.0368059  
H473     H      0.997500000000     0.195300000000     0.615110000000     0.0502819  
H474     H      0.533780000000     0.276850000000     0.652270000000     0.0472351  
H475     H      0.497080000000     0.287300000000     0.607820000000     0.0687236  
H476     H      0.958750000000     0.202860000000     0.599250000000     0.0643117  
H477     H      0.629560000000     0.042900000000     0.774410000000     0.0612733  
H478     H      0.657540000000     0.031040000000     0.724210000000     0.0597647  
H479     H      0.632020000000     0.995020000000     0.813330000000     0.0507598  
H480     H      0.662880000000     0.452120000000     0.789860000000     0.0673251  
H481     H      0.602220000000     0.041780000000     0.741420000000     0.0649872  
H482     H      0.631710000000     0.498010000000     0.716600000000     0.0572578  
H483     H      0.635680000000     0.448340000000     0.756740000000     0.0690462  
H484     H      0.873330000000     0.456070000000     0.747440000000     0.0582426  
H485     H      0.910540000000     0.469040000000     0.791690000000     0.0653289  
H486     H      0.853610000000     0.026180000000     0.707070000000     0.0316336  
H487     H      0.902040000000     0.998060000000     0.707170000000     0.0605163  
H488     H      0.852930000000     0.462620000000     0.784850000000     0.0511185  
H489     H      0.890450000000     0.505490000000     0.799490000000     0.06395    
H490     H      0.913320000000     0.037840000000     0.716320000000     0.0696165  
H491     H      0.546240000000     0.388530000000     0.761220000000     0.0569215  
H492     H      0.541980000000     0.348480000000     0.720500000000     0.0501061  
H493     H      0.989260000000     0.384940000000     0.794830000000     0.044733   
H494     H      0.951300000000     0.349610000000     0.767150000000     0.0728797  
H495     H      0.543560000000     0.409390000000     0.723810000000     0.0514282  
H496     H      0.510560000000     0.369210000000     0.700550000000     0.0490118  
H497     H      0.955230000000     0.371900000000     0.730360000000     0.0738072  
H498     H      0.003100000000     0.123130000000     0.817200000000     0.0463684  
H499     H      0.962790000000     0.157200000000     0.792900000000     0.0513693  
H500     H      0.552730000000     0.125530000000     0.783170000000     0.0395364  
H501     H      0.547370000000     0.158900000000     0.735450000000     0.0708917  
H502     H      0.970810000000     0.098430000000     0.803570000000     0.0492969  
H503     H      0.961550000000     0.132990000000     0.757220000000     0.0558576  
H504     H      0.515660000000     0.134710000000     0.720510000000     0.0682394  
H505     H      0.866050000000     0.696880000000     0.494450000000     0.0574953  
H506     H      0.831610000000     0.724920000000     0.455690000000     0.0659991  
H507     H      0.869720000000     0.726230000000     0.048300000000     0.040847   
H508     H      0.831990000000     0.769300000000     0.048600000000     0.0828659  
H509     H      0.889060000000     0.711970000000     0.461280000000     0.0593553  
H510     H      0.855560000000     0.760260000000     0.458960000000     0.0648122  
H511     H      0.852670000000     0.790200000000     0.017590000000     0.0840118  
H512     H      0.606100000000     0.698280000000     0.500940000000     0.0454836  
H513     H      0.639590000000     0.721860000000     0.043070000000     0.0454222  
H514     H      0.604920000000     0.734240000000     0.450090000000     0.0368722  
H515     H      0.641660000000     0.777890000000     0.456830000000     0.0690716  
H516     H      0.582110000000     0.710480000000     0.034690000000     0.0429738  
H517     H      0.615730000000     0.757480000000     0.043360000000     0.0479276  
H518     H      0.619610000000     0.793870000000     0.989800000000     0.066991   
H519     H      0.693570000000     0.867540000000     0.005440000000     0.0456571  
H520     H      0.707290000000     0.906670000000     0.465690000000     0.0503566  
H521     H      0.739320000000     0.869270000000     0.049690000000     0.0401976  
H522     H      0.784100000000     0.903480000000     0.533140000000     0.0710451  
H523     H      0.702110000000     0.846380000000     0.469090000000     0.0475715  
H524     H      0.741540000000     0.884640000000     0.453390000000     0.0480243  
H525     H      0.789270000000     0.880910000000     0.496660000000     0.0717014  
H526     H      0.693900000000     0.630660000000     0.496060000000     0.0446862  
H527     H      0.707110000000     0.594500000000     0.039060000000     0.0478186  
H528     H      0.741610000000     0.629120000000     0.454160000000     0.0413203  
H529     H      0.786260000000     0.596740000000     0.474220000000     0.0694152  
H530     H      0.699620000000     0.654000000000     0.031660000000     0.0435052  
H531     H      0.740250000000     0.618410000000     0.050980000000     0.0475371  
H532     H      0.789350000000     0.620920000000     0.009870000000     0.0691374  
H533     H      0.800640000000     0.520260000000     0.371770000000     0.0485228  
H534     H      0.791530000000     0.475240000000     0.407240000000     0.0506086  
H535     H      0.751270000000     0.556670000000     0.370370000000     0.0425664  
H536     H      0.709490000000     0.035600000000     0.405380000000     0.0703474  
H537     H      0.800090000000     0.484420000000     0.348330000000     0.0462386  
H538     H      0.759240000000     0.961680000000     0.382860000000     0.0477972  
H539     H      0.706630000000     0.999640000000     0.382140000000     0.0760045  
H540     H      0.795590000000     0.467240000000     0.129880000000     0.0492311  
H541     H      0.792360000000     0.517920000000     0.101340000000     0.0508819  
H542     H      0.741540000000     0.938790000000     0.128000000000     0.0409765  
H543     H      0.702260000000     0.969820000000     0.098860000000     0.0624251  
H544     H      0.800890000000     0.499380000000     0.157920000000     0.0427991  
H545     H      0.762540000000     0.531960000000     0.128540000000     0.0511919  
H546     H      0.705910000000     0.002350000000     0.126740000000     0.0599133  
H547     H      0.995530000000     0.702680000000     0.370430000000     0.0451132  
H548     H      0.042980000000     0.731050000000     0.351300000000     0.0526336  
H549     H      0.948870000000     0.740090000000     0.365980000000     0.040093   
H550     H      0.462740000000     0.794090000000     0.347900000000     0.0673683  
H551     H      0.022930000000     0.707640000000     0.403330000000     0.0481895  
H552     H      0.539020000000     0.760100000000     0.383010000000     0.0653946  
H553     H      0.489820000000     0.797910000000     0.381140000000     0.0743653  
H554     H      0.540030000000     0.736650000000     0.139200000000     0.0439771  
H555     H      0.532900000000     0.770920000000     0.092340000000     0.0443201  
H556     H      0.963270000000     0.705510000000     0.159550000000     0.0368464  
H557     H      0.997500000000     0.695300000000     0.115110000000     0.0504119  
H558     H      0.533780000000     0.776840000000     0.152270000000     0.0473126  
H559     H      0.497080000000     0.787300000000     0.107820000000     0.068851   
H560     H      0.958750000000     0.702860000000     0.099250000000     0.0644213  
H561     H      0.629560000000     0.542900000000     0.274410000000     0.0625962  
H562     H      0.657540000000     0.531040000000     0.224210000000     0.0583377  
H563     H      0.632020000000     0.495020000000     0.313330000000     0.0494603  
H564     H      0.662880000000     0.952120000000     0.289860000000     0.067674   
H565     H      0.602220000000     0.541780000000     0.241420000000     0.065948   
H566     H      0.631710000000     0.998010000000     0.216600000000     0.0638142  
H567     H      0.635680000000     0.948340000000     0.256740000000     0.0696246  
H568     H      0.873330000000     0.956060000000     0.247440000000     0.0592286  
H569     H      0.910540000000     0.969030000000     0.291690000000     0.0643122  
H570     H      0.853610000000     0.526180000000     0.207070000000     0.0329205  
H571     H      0.902040000000     0.498060000000     0.207170000000     0.0550019  
H572     H      0.852930000000     0.962620000000     0.284850000000     0.0522202  
H573     H      0.890450000000     0.005490000000     0.299490000000     0.0578233  
H574     H      0.913320000000     0.537840000000     0.216320000000     0.0687572  
H575     H      0.546240000000     0.888530000000     0.261220000000     0.057069   
H576     H      0.541980000000     0.848480000000     0.220500000000     0.0501999  
H577     H      0.989260000000     0.884940000000     0.294830000000     0.0449036  
H578     H      0.951300000000     0.849610000000     0.267150000000     0.0729126  
H579     H      0.543560000000     0.909390000000     0.223810000000     0.0519521  
H580     H      0.510560000000     0.869210000000     0.200550000000     0.049294   
H581     H      0.955230000000     0.871900000000     0.230360000000     0.073971   
H582     H      0.003100000000     0.623130000000     0.317200000000     0.0465802  
H583     H      0.962790000000     0.657200000000     0.292900000000     0.0514109  
H584     H      0.552730000000     0.625530000000     0.283160000000     0.039645   
H585     H      0.547370000000     0.658900000000     0.235450000000     0.0709347  
H586     H      0.970810000000     0.598430000000     0.303570000000     0.0494542  
H587     H      0.961550000000     0.633000000000     0.257220000000     0.0559104  
H588     H      0.515660000000     0.634710000000     0.220510000000     0.0683514  
H589     H      0.866050000000     0.696880000000     0.994450000000     0.0574921  
H590     H      0.831610000000     0.724920000000     0.955690000000     0.0660004  
H591     H      0.869720000000     0.726230000000     0.548300000000     0.0408501  
H592     H      0.831990000000     0.769300000000     0.548600000000     0.0828653  
H593     H      0.889060000000     0.711970000000     0.961270000000     0.0593413  
H594     H      0.855560000000     0.760260000000     0.958960000000     0.0648169  
H595     H      0.852670000000     0.790200000000     0.517590000000     0.0840146  
H596     H      0.606100000000     0.698280000000     0.000940000000     0.0454803  
H597     H      0.639590000000     0.721860000000     0.543070000000     0.0454234  
H598     H      0.604920000000     0.734240000000     0.950090000000     0.0368759  
H599     H      0.641660000000     0.777890000000     0.956830000000     0.0690705  
H600     H      0.582110000000     0.710480000000     0.534690000000     0.0429748  
H601     H      0.615730000000     0.757480000000     0.543360000000     0.0479318  
H602     H      0.619610000000     0.793870000000     0.489800000000     0.0669864  
H603     H      0.693570000000     0.867540000000     0.505440000000     0.0456675  
H604     H      0.707290000000     0.906670000000     0.965690000000     0.0503575  
H605     H      0.739320000000     0.869270000000     0.549690000000     0.0402006  
H606     H      0.784100000000     0.903480000000     0.033140000000     0.0710507  
H607     H      0.702110000000     0.846380000000     0.969090000000     0.0475823  
H608     H      0.741540000000     0.884640000000     0.953390000000     0.0480241  
H609     H      0.789270000000     0.880910000000     0.996660000000     0.0717276  
H610     H      0.693900000000     0.630660000000     0.996060000000     0.0447125  
H611     H      0.707110000000     0.594500000000     0.539060000000     0.0478234  
H612     H      0.741610000000     0.629120000000     0.954160000000     0.0413241  
H613     H      0.786260000000     0.596740000000     0.974220000000     0.0694119  
H614     H      0.699620000000     0.654000000000     0.531660000000     0.0434993  
H615     H      0.740250000000     0.618410000000     0.550980000000     0.0475409  
H616     H      0.789350000000     0.620920000000     0.509870000000     0.0691614  
H617     H      0.800640000000     0.520260000000     0.871770000000     0.0485238  
H618     H      0.791530000000     0.475240000000     0.907240000000     0.0506106  
H619     H      0.751270000000     0.556670000000     0.870370000000     0.0425668  
H620     H      0.709490000000     0.035600000000     0.905380000000     0.0703494  
H621     H      0.800090000000     0.484420000000     0.848330000000     0.0462389  
H622     H      0.759240000000     0.961680000000     0.882860000000     0.0477978  
H623     H      0.706630000000     0.999640000000     0.882140000000     0.076005   
H624     H      0.795590000000     0.467240000000     0.629880000000     0.0492316  
H625     H      0.792360000000     0.517920000000     0.601340000000     0.0508825  
H626     H      0.741540000000     0.938790000000     0.628000000000     0.040977   
H627     H      0.702260000000     0.969820000000     0.598860000000     0.0624263  
H628     H      0.800890000000     0.499380000000     0.657920000000     0.0427992  
H629     H      0.762540000000     0.531960000000     0.628540000000     0.0511919  
H630     H      0.705910000000     0.002350000000     0.626740000000     0.0599135  
H631     H      0.995530000000     0.702680000000     0.870430000000     0.045117   
H632     H      0.042980000000     0.731050000000     0.851300000000     0.0526327  
H633     H      0.948870000000     0.740090000000     0.865980000000     0.0400982  
H634     H      0.462740000000     0.794090000000     0.847900000000     0.0673645  
H635     H      0.022930000000     0.707640000000     0.903330000000     0.0482012  
H636     H      0.539020000000     0.760100000000     0.883010000000     0.0653953  
H637     H      0.489820000000     0.797910000000     0.881140000000     0.0743658  
H638     H      0.540030000000     0.736650000000     0.639200000000     0.0439771  
H639     H      0.532900000000     0.770920000000     0.592340000000     0.0443223  
H640     H      0.963270000000     0.705510000000     0.659560000000     0.0368591  
H641     H      0.997500000000     0.695300000000     0.615110000000     0.0504123  
H642     H      0.533780000000     0.776840000000     0.652270000000     0.0473127  
H643     H      0.497080000000     0.787300000000     0.607820000000     0.0688537  
H644     H      0.958750000000     0.702860000000     0.599250000000     0.0644229  
H645     H      0.629560000000     0.542900000000     0.774410000000     0.0625963  
H646     H      0.657540000000     0.531040000000     0.724210000000     0.0583377  
H647     H      0.632020000000     0.495020000000     0.813330000000     0.0494593  
H648     H      0.662880000000     0.952120000000     0.789860000000     0.0676749  
H649     H      0.602220000000     0.541780000000     0.741420000000     0.065949   
H650     H      0.631710000000     0.998010000000     0.716600000000     0.0638148  
H651     H      0.635680000000     0.948340000000     0.756740000000     0.0696279  
H652     H      0.873330000000     0.956060000000     0.747440000000     0.059229   
H653     H      0.910540000000     0.969030000000     0.791690000000     0.0643106  
H654     H      0.853610000000     0.526180000000     0.707070000000     0.0329201  
H655     H      0.902040000000     0.498060000000     0.707170000000     0.055002   
H656     H      0.852930000000     0.962620000000     0.784850000000     0.0522211  
H657     H      0.890450000000     0.005490000000     0.799490000000     0.0578229  
H658     H      0.913320000000     0.537840000000     0.716320000000     0.0687579  
H659     H      0.546240000000     0.888530000000     0.761220000000     0.0570709  
H660     H      0.541980000000     0.848480000000     0.720500000000     0.0502002  
H661     H      0.989260000000     0.884940000000     0.794830000000     0.0449039  
H662     H      0.951300000000     0.849610000000     0.767150000000     0.0729125  
H663     H      0.543560000000     0.909390000000     0.723810000000     0.0519539  
H664     H      0.510560000000     0.869210000000     0.700550000000     0.0492943  
H665     H      0.955230000000     0.871900000000     0.730360000000     0.0739709  
H666     H      0.003100000000     0.623130000000     0.817200000000     0.0465792  
H667     H      0.962790000000     0.657200000000     0.792900000000     0.0514108  
H668     H      0.552730000000     0.625530000000     0.783170000000     0.0396337  
H669     H      0.547370000000     0.658900000000     0.735450000000     0.0709325  
H670     H      0.970810000000     0.598430000000     0.803570000000     0.0494551  
H671     H      0.961550000000     0.633000000000     0.757220000000     0.0559105  
H672     H      0.515660000000     0.634710000000     0.720510000000     0.0683499  
N1       N      0.393980000000     0.237110000000     0.005930000000    -0.173734   
N2       N      0.328950000000     0.249830000000     0.000800000000    -0.160823   
N3       N      0.398410000000     0.266250000000     0.057100000000    -0.027464   
N4       N      0.078610000000     0.239540000000     0.992310000000    -0.176019   
N5       N      0.143390000000     0.251770000000     0.001330000000    -0.166649   
N6       N      0.076170000000     0.274820000000     0.444930000000    -0.0277158  
N7       N      0.236850000000     0.342610000000     0.506900000000    -0.175951   
N8       N      0.247240000000     0.407740000000     0.497930000000    -0.166283   
N9       N      0.279450000000     0.339280000000     0.046950000000    -0.0228072  
N10      N      0.236230000000     0.157230000000     0.495670000000    -0.176324   
N11      N      0.248020000000     0.093050000000     0.008020000000    -0.166498   
N12      N      0.280660000000     0.160450000000     0.457710000000    -0.0229702  
N13      N      0.259340000000     0.015030000000     0.343670000000    -0.173382   
N14      N      0.248640000000     0.003280000000     0.409100000000    -0.166976   
N15      N      0.212310000000     0.549150000000     0.339360000000    -0.0219558  
N16      N      0.256220000000     0.974720000000     0.160300000000    -0.173673   
N17      N      0.246120000000     0.996000000000     0.097270000000    -0.163062   
N18      N      0.203720000000     0.447140000000     0.160050000000    -0.0319932  
N19      N      0.481250000000     0.237510000000     0.404380000000    -0.173211   
N20      N      0.503720000000     0.263520000000     0.347100000000    -0.163966   
N21      N      0.932270000000     0.271640000000     0.400760000000    -0.0296046  
N22      N      0.495070000000     0.244720000000     0.160290000000    -0.171764   
N23      N      0.993190000000     0.239620000000     0.091720000000    -0.16008    
N24      N      0.439850000000     0.246250000000     0.141050000000    -0.0218592  
N25      N      0.100340000000     0.502060000000     0.274410000000    -0.169585   
N26      N      0.163030000000     0.490280000000     0.255380000000    -0.161521   
N27      N      0.102300000000     0.454590000000     0.310960000000    -0.0295788  
N28      N      0.348290000000     0.499610000000     0.249570000000    -0.175404   
N29      N      0.415810000000     0.004830000000     0.255380000000    -0.160105   
N30      N      0.359770000000     0.056080000000     0.246870000000    -0.0195459  
N31      N      0.002550000000     0.411770000000     0.254250000000    -0.172259   
N32      N      0.996030000000     0.346120000000     0.242980000000    -0.164253   
N33      N      0.450900000000     0.414050000000     0.280660000000    -0.0259938  
N34      N      0.513420000000     0.096350000000     0.275440000000    -0.176064   
N35      N      0.003120000000     0.160830000000     0.261500000000    -0.165006   
N36      N      0.063030000000     0.095330000000     0.244030000000    -0.0292972  
N37      N      0.393980000000     0.237110000000     0.505930000000    -0.173721   
N38      N      0.328950000000     0.249830000000     0.500800000000    -0.160819   
N39      N      0.398410000000     0.266250000000     0.557100000000    -0.027464   
N40      N      0.078610000000     0.239540000000     0.492310000000    -0.176031   
N41      N      0.143390000000     0.251770000000     0.501330000000    -0.166641   
N42      N      0.076170000000     0.274820000000     0.944930000000    -0.0277159  
N43      N      0.236850000000     0.342610000000     0.006900000000    -0.175955   
N44      N      0.247240000000     0.407740000000     0.997930000000    -0.166271   
N45      N      0.279450000000     0.339280000000     0.546950000000    -0.0228067  
N46      N      0.236230000000     0.157230000000     0.995670000000    -0.176311   
N47      N      0.248020000000     0.093050000000     0.508020000000    -0.166482   
N48      N      0.280660000000     0.160450000000     0.957710000000    -0.0229699  
N49      N      0.259340000000     0.015030000000     0.843670000000    -0.173382   
N50      N      0.248640000000     0.003280000000     0.909100000000    -0.166974   
N51      N      0.212310000000     0.549150000000     0.839360000000    -0.021956   
N52      N      0.256220000000     0.974720000000     0.660300000000    -0.173673   
N53      N      0.246120000000     0.996000000000     0.597270000000    -0.163062   
N54      N      0.203720000000     0.447140000000     0.660050000000    -0.031993   
N55      N      0.481250000000     0.237510000000     0.904390000000    -0.173205   
N56      N      0.503720000000     0.263520000000     0.847100000000    -0.163969   
N57      N      0.932270000000     0.271640000000     0.900770000000    -0.0295602  
N58      N      0.495070000000     0.244720000000     0.660290000000    -0.171766   
N59      N      0.993190000000     0.239620000000     0.591720000000    -0.160078   
N60      N      0.439850000000     0.246250000000     0.641050000000    -0.0218722  
N61      N      0.100340000000     0.502060000000     0.774410000000    -0.169585   
N62      N      0.163030000000     0.490280000000     0.755380000000    -0.16152    
N63      N      0.102300000000     0.454590000000     0.810960000000    -0.0295888  
N64      N      0.348290000000     0.499610000000     0.749570000000    -0.175403   
N65      N      0.415810000000     0.004830000000     0.755380000000    -0.160111   
N66      N      0.359770000000     0.056080000000     0.746870000000    -0.0195464  
N67      N      0.002550000000     0.411770000000     0.754250000000    -0.172259   
N68      N      0.996030000000     0.346120000000     0.742980000000    -0.164253   
N69      N      0.450900000000     0.414050000000     0.780660000000    -0.025994   
N70      N      0.513420000000     0.096350000000     0.775440000000    -0.176071   
N71      N      0.003120000000     0.160830000000     0.761500000000    -0.165009   
N72      N      0.063030000000     0.095330000000     0.744040000000    -0.0293221  
N73      N      0.393980000000     0.737110000000     0.005930000000    -0.173717   
N74      N      0.328950000000     0.749830000000     0.000800000000    -0.160805   
N75      N      0.398410000000     0.766250000000     0.057100000000    -0.0274982  
N76      N      0.078610000000     0.739540000000     0.992310000000    -0.175944   
N77      N      0.143390000000     0.751760000000     0.001330000000    -0.16662    
N78      N      0.076170000000     0.774820000000     0.444930000000    -0.0277409  
N79      N      0.236850000000     0.842610000000     0.506900000000    -0.175958   
N80      N      0.247240000000     0.907740000000     0.497930000000    -0.165809   
N81      N      0.279450000000     0.839280000000     0.046950000000    -0.0228458  
N82      N      0.236230000000     0.657230000000     0.495670000000    -0.176315   
N83      N      0.248020000000     0.593050000000     0.008020000000    -0.166607   
N84      N      0.280660000000     0.660450000000     0.457710000000    -0.0229895  
N85      N      0.259340000000     0.515030000000     0.343670000000    -0.175237   
N86      N      0.248640000000     0.503280000000     0.409100000000    -0.165269   
N87      N      0.212310000000     0.049150000000     0.339360000000    -0.0218801  
N88      N      0.256220000000     0.474710000000     0.160300000000    -0.172562   
N89      N      0.246120000000     0.496000000000     0.097270000000    -0.165085   
N90      N      0.203720000000     0.947140000000     0.160050000000    -0.0318015  
N91      N      0.481250000000     0.737510000000     0.404380000000    -0.173194   
N92      N      0.503720000000     0.763520000000     0.347100000000    -0.163945   
N93      N      0.932270000000     0.771640000000     0.400760000000    -0.0296093  
N94      N      0.495070000000     0.744720000000     0.160290000000    -0.171757   
N95      N      0.993190000000     0.739620000000     0.091720000000    -0.16006    
N96      N      0.439850000000     0.746250000000     0.141050000000    -0.0218644  
N97      N      0.100340000000     0.002060000000     0.274410000000    -0.171896   
N98      N      0.163030000000     0.990280000000     0.255380000000    -0.158657   
N99      N      0.102300000000     0.954590000000     0.310960000000    -0.0299065  
N100     N      0.348290000000     0.999610000000     0.249570000000    -0.17318    
N101     N      0.415810000000     0.504830000000     0.255380000000    -0.157168   
N102     N      0.359770000000     0.556080000000     0.246870000000    -0.0195329  
N103     N      0.002550000000     0.911770000000     0.254250000000    -0.171856   
N104     N      0.996030000000     0.846120000000     0.242980000000    -0.164237   
N105     N      0.450900000000     0.914050000000     0.280660000000    -0.0257146  
N106     N      0.513420000000     0.596350000000     0.275440000000    -0.176104   
N107     N      0.003120000000     0.660820000000     0.261500000000    -0.164904   
N108     N      0.063030000000     0.595340000000     0.244030000000    -0.0293076  
N109     N      0.393980000000     0.737110000000     0.505930000000    -0.173705   
N110     N      0.328950000000     0.749830000000     0.500800000000    -0.1608     
N111     N      0.398410000000     0.766250000000     0.557100000000    -0.0274982  
N112     N      0.078610000000     0.739540000000     0.492310000000    -0.175956   
N113     N      0.143390000000     0.751760000000     0.501330000000    -0.166613   
N114     N      0.076170000000     0.774820000000     0.944930000000    -0.027741   
N115     N      0.236850000000     0.842610000000     0.006900000000    -0.175962   
N116     N      0.247240000000     0.907740000000     0.997930000000    -0.165797   
N117     N      0.279450000000     0.839280000000     0.546950000000    -0.0228453  
N118     N      0.236230000000     0.657230000000     0.995670000000    -0.176302   
N119     N      0.248020000000     0.593050000000     0.508020000000    -0.166592   
N120     N      0.280660000000     0.660450000000     0.957710000000    -0.0229893  
N121     N      0.259340000000     0.515030000000     0.843670000000    -0.175237   
N122     N      0.248640000000     0.503280000000     0.909100000000    -0.165267   
N123     N      0.212310000000     0.049150000000     0.839360000000    -0.0218803  
N124     N      0.256220000000     0.474710000000     0.660300000000    -0.172562   
N125     N      0.246120000000     0.496000000000     0.597270000000    -0.165085   
N126     N      0.203720000000     0.947140000000     0.660050000000    -0.0318013  
N127     N      0.481250000000     0.737510000000     0.904390000000    -0.173188   
N128     N      0.503720000000     0.763520000000     0.847100000000    -0.163948   
N129     N      0.932270000000     0.771640000000     0.900770000000    -0.029565   
N130     N      0.495070000000     0.744720000000     0.660290000000    -0.171758   
N131     N      0.993190000000     0.739620000000     0.591720000000    -0.160058   
N132     N      0.439850000000     0.746250000000     0.641050000000    -0.0218774  
N133     N      0.100340000000     0.002060000000     0.774410000000    -0.171896   
N134     N      0.163030000000     0.990280000000     0.755380000000    -0.158656   
N135     N      0.102300000000     0.954590000000     0.810960000000    -0.0299164  
N136     N      0.348290000000     0.999610000000     0.749570000000    -0.17318    
N137     N      0.415810000000     0.504830000000     0.755380000000    -0.157174   
N138     N      0.359770000000     0.556080000000     0.746870000000    -0.0195334  
N139     N      0.002550000000     0.911770000000     0.754250000000    -0.171856   
N140     N      0.996030000000     0.846120000000     0.742980000000    -0.164237   
N141     N      0.450900000000     0.914050000000     0.780660000000    -0.0257148  
N142     N      0.513420000000     0.596350000000     0.775440000000    -0.176111   
N143     N      0.003120000000     0.660820000000     0.761500000000    -0.164907   
N144     N      0.063030000000     0.595340000000     0.744040000000    -0.0293324  
N145     N      0.893980000000     0.237110000000     0.005930000000    -0.173732   
N146     N      0.828950000000     0.249830000000     0.000800000000    -0.160823   
N147     N      0.898410000000     0.266250000000     0.057100000000    -0.0274615  
N148     N      0.578610000000     0.239540000000     0.992310000000    -0.176028   
N149     N      0.643390000000     0.251770000000     0.001330000000    -0.16665    
N150     N      0.576170000000     0.274820000000     0.444930000000    -0.0277204  
N151     N      0.736850000000     0.342610000000     0.506900000000    -0.175954   
N152     N      0.747240000000     0.407740000000     0.497930000000    -0.166282   
N153     N      0.779450000000     0.339280000000     0.046950000000    -0.022819   
N154     N      0.736230000000     0.157230000000     0.495670000000    -0.176324   
N155     N      0.748020000000     0.093050000000     0.008020000000    -0.166494   
N156     N      0.780660000000     0.160450000000     0.457710000000    -0.0229704  
N157     N      0.759340000000     0.015030000000     0.343670000000    -0.173388   
N158     N      0.748640000000     0.003280000000     0.409100000000    -0.16697    
N159     N      0.712310000000     0.549150000000     0.339360000000    -0.0219551  
N160     N      0.756220000000     0.974720000000     0.160300000000    -0.173669   
N161     N      0.746120000000     0.996000000000     0.097270000000    -0.163069   
N162     N      0.703720000000     0.447140000000     0.160050000000    -0.0319952  
N163     N      0.981250000000     0.237510000000     0.404380000000    -0.173281   
N164     N      0.003720000000     0.263520000000     0.347100000000    -0.163902   
N165     N      0.432270000000     0.271640000000     0.400760000000    -0.0296026  
N166     N      0.995070000000     0.244720000000     0.160290000000    -0.171781   
N167     N      0.493190000000     0.239620000000     0.091720000000    -0.160008   
N168     N      0.939850000000     0.246250000000     0.141050000000    -0.0218571  
N169     N      0.600340000000     0.502060000000     0.274410000000    -0.169589   
N170     N      0.663030000000     0.490280000000     0.255380000000    -0.161517   
N171     N      0.602310000000     0.454590000000     0.310960000000    -0.0296216  
N172     N      0.848290000000     0.499610000000     0.249570000000    -0.175403   
N173     N      0.915810000000     0.004830000000     0.255380000000    -0.160095   
N174     N      0.859770000000     0.056080000000     0.246870000000    -0.0195448  
N175     N      0.502550000000     0.411770000000     0.254250000000    -0.172341   
N176     N      0.496030000000     0.346120000000     0.242980000000    -0.164218   
N177     N      0.950900000000     0.414050000000     0.280660000000    -0.0260056  
N178     N      0.013420000000     0.096350000000     0.275440000000    -0.175987   
N179     N      0.503120000000     0.160830000000     0.261500000000    -0.164997   
N180     N      0.563030000000     0.095330000000     0.244030000000    -0.0292929  
N181     N      0.893980000000     0.237110000000     0.505930000000    -0.173719   
N182     N      0.828950000000     0.249830000000     0.500800000000    -0.160818   
N183     N      0.898410000000     0.266250000000     0.557100000000    -0.0274615  
N184     N      0.578610000000     0.239540000000     0.492310000000    -0.17604    
N185     N      0.643390000000     0.251770000000     0.501330000000    -0.166642   
N186     N      0.576170000000     0.274820000000     0.944930000000    -0.0277205  
N187     N      0.736850000000     0.342610000000     0.006900000000    -0.175958   
N188     N      0.747240000000     0.407740000000     0.997930000000    -0.166271   
N189     N      0.779450000000     0.339280000000     0.546950000000    -0.0228185  
N190     N      0.736230000000     0.157230000000     0.995670000000    -0.176312   
N191     N      0.748020000000     0.093050000000     0.508020000000    -0.166479   
N192     N      0.780660000000     0.160450000000     0.957710000000    -0.0229702  
N193     N      0.759340000000     0.015030000000     0.843670000000    -0.173389   
N194     N      0.748640000000     0.003280000000     0.909100000000    -0.166969   
N195     N      0.712310000000     0.549150000000     0.839360000000    -0.0219553  
N196     N      0.756220000000     0.974720000000     0.660300000000    -0.173669   
N197     N      0.746120000000     0.996000000000     0.597270000000    -0.163069   
N198     N      0.703720000000     0.447140000000     0.660050000000    -0.0319949  
N199     N      0.981250000000     0.237510000000     0.904390000000    -0.173275   
N200     N      0.003720000000     0.263520000000     0.847100000000    -0.163905   
N201     N      0.432270000000     0.271640000000     0.900770000000    -0.0295582  
N202     N      0.995070000000     0.244720000000     0.660290000000    -0.171783   
N203     N      0.493190000000     0.239620000000     0.591720000000    -0.160006   
N204     N      0.939850000000     0.246250000000     0.641050000000    -0.02187    
N205     N      0.600340000000     0.502060000000     0.774410000000    -0.169588   
N206     N      0.663030000000     0.490280000000     0.755380000000    -0.161517   
N207     N      0.602310000000     0.454590000000     0.810960000000    -0.0296316  
N208     N      0.848290000000     0.499610000000     0.749570000000    -0.175403   
N209     N      0.915810000000     0.004830000000     0.755380000000    -0.160102   
N210     N      0.859770000000     0.056080000000     0.746870000000    -0.0195453  
N211     N      0.502550000000     0.411770000000     0.754250000000    -0.17234    
N212     N      0.496030000000     0.346120000000     0.742980000000    -0.164218   
N213     N      0.950900000000     0.414050000000     0.780660000000    -0.0260058  
N214     N      0.013420000000     0.096350000000     0.775440000000    -0.175994   
N215     N      0.503120000000     0.160830000000     0.761500000000    -0.165      
N216     N      0.563030000000     0.095330000000     0.744040000000    -0.0293177  
N217     N      0.893980000000     0.737110000000     0.005930000000    -0.173715   
N218     N      0.828950000000     0.749830000000     0.000800000000    -0.160805   
N219     N      0.898410000000     0.766250000000     0.057100000000    -0.0274955  
N220     N      0.578610000000     0.739540000000     0.992310000000    -0.175955   
N221     N      0.643390000000     0.751760000000     0.001330000000    -0.166621   
N222     N      0.576170000000     0.774820000000     0.444930000000    -0.0277461  
N223     N      0.736850000000     0.842610000000     0.506900000000    -0.175961   
N224     N      0.747240000000     0.907740000000     0.497930000000    -0.16581    
N225     N      0.779450000000     0.839280000000     0.046950000000    -0.0228573  
N226     N      0.736230000000     0.657230000000     0.495670000000    -0.176316   
N227     N      0.748020000000     0.593050000000     0.008020000000    -0.166604   
N228     N      0.780660000000     0.660450000000     0.457710000000    -0.0229896  
N229     N      0.759340000000     0.515030000000     0.343670000000    -0.175237   
N230     N      0.748640000000     0.503280000000     0.409100000000    -0.16527    
N231     N      0.712310000000     0.049150000000     0.339360000000    -0.0218797  
N232     N      0.756220000000     0.474710000000     0.160300000000    -0.172561   
N233     N      0.746120000000     0.496000000000     0.097270000000    -0.165086   
N234     N      0.703720000000     0.947140000000     0.160050000000    -0.0318037  
N235     N      0.981250000000     0.737510000000     0.404380000000    -0.173275   
N236     N      0.003720000000     0.763520000000     0.347100000000    -0.163874   
N237     N      0.432270000000     0.771640000000     0.400760000000    -0.0296074  
N238     N      0.995070000000     0.744720000000     0.160290000000    -0.171778   
N239     N      0.493190000000     0.739620000000     0.091720000000    -0.159977   
N240     N      0.939850000000     0.746250000000     0.141050000000    -0.0218618  
N241     N      0.600340000000     0.002060000000     0.274410000000    -0.171896   
N242     N      0.663030000000     0.990280000000     0.255380000000    -0.158657   
N243     N      0.602310000000     0.954590000000     0.310960000000    -0.029949   
N244     N      0.848290000000     0.999610000000     0.249570000000    -0.173192   
N245     N      0.915810000000     0.504830000000     0.255380000000    -0.157176   
N246     N      0.859770000000     0.556080000000     0.246870000000    -0.0195317  
N247     N      0.502550000000     0.911770000000     0.254250000000    -0.171947   
N248     N      0.496030000000     0.846120000000     0.242980000000    -0.164194   
N249     N      0.950900000000     0.914050000000     0.280660000000    -0.0257287  
N250     N      0.013420000000     0.596350000000     0.275440000000    -0.176017   
N251     N      0.503120000000     0.660820000000     0.261500000000    -0.164899   
N252     N      0.563030000000     0.595340000000     0.244030000000    -0.029303   
N253     N      0.893980000000     0.737110000000     0.505930000000    -0.173703   
N254     N      0.828950000000     0.749830000000     0.500800000000    -0.1608     
N255     N      0.898410000000     0.766250000000     0.557100000000    -0.0274955  
N256     N      0.578610000000     0.739540000000     0.492310000000    -0.175967   
N257     N      0.643390000000     0.751760000000     0.501330000000    -0.166614   
N258     N      0.576170000000     0.774820000000     0.944930000000    -0.0277462  
N259     N      0.736850000000     0.842610000000     0.006900000000    -0.175965   
N260     N      0.747240000000     0.907740000000     0.997930000000    -0.165799   
N261     N      0.779450000000     0.839280000000     0.546950000000    -0.0228568  
N262     N      0.736230000000     0.657230000000     0.995670000000    -0.176303   
N263     N      0.748020000000     0.593050000000     0.508020000000    -0.166588   
N264     N      0.780660000000     0.660450000000     0.957710000000    -0.0229894  
N265     N      0.759340000000     0.515030000000     0.843670000000    -0.175237   
N266     N      0.748640000000     0.503280000000     0.909100000000    -0.165268   
N267     N      0.712310000000     0.049150000000     0.839360000000    -0.0218799  
N268     N      0.756220000000     0.474710000000     0.660300000000    -0.172561   
N269     N      0.746120000000     0.496000000000     0.597270000000    -0.165086   
N270     N      0.703720000000     0.947140000000     0.660050000000    -0.0318035  
N271     N      0.981250000000     0.737510000000     0.904390000000    -0.173269   
N272     N      0.003720000000     0.763520000000     0.847100000000    -0.163877   
N273     N      0.432270000000     0.771640000000     0.900770000000    -0.029563   
N274     N      0.995070000000     0.744720000000     0.660290000000    -0.17178    
N275     N      0.493190000000     0.739620000000     0.591720000000    -0.159975   
N276     N      0.939850000000     0.746250000000     0.641050000000    -0.0218748  
N277     N      0.600340000000     0.002060000000     0.774410000000    -0.171896   
N278     N      0.663030000000     0.990280000000     0.755380000000    -0.158657   
N279     N      0.602310000000     0.954590000000     0.810960000000    -0.0299589  
N280     N      0.848290000000     0.999610000000     0.749570000000    -0.173192   
N281     N      0.915810000000     0.504830000000     0.755380000000    -0.157182   
N282     N      0.859770000000     0.556080000000     0.746870000000    -0.0195322  
N283     N      0.502550000000     0.911770000000     0.754250000000    -0.171947   
N284     N      0.496030000000     0.846120000000     0.742980000000    -0.164194   
N285     N      0.950900000000     0.914050000000     0.780660000000    -0.0257289  
N286     N      0.013420000000     0.596350000000     0.775440000000    -0.176024   
N287     N      0.503120000000     0.660820000000     0.761500000000    -0.164902   
N288     N      0.563030000000     0.595340000000     0.744040000000    -0.0293278  
Ni1      Ni     0.511350000000     0.007230000000     0.236760000000     1.01244    
Ni2      Ni     0.504710000000     0.500800000000     0.293330000000     1.02065    
Ni3      Ni     0.471440000000     0.252700000000     0.255590000000     1.01878    
Ni4      Ni     0.027700000000     0.254560000000     0.252040000000     1.00831    
Ni5      Ni     0.254080000000     0.022480000000     0.245480000000     1.01309    
Ni6      Ni     0.257280000000     0.467420000000     0.258430000000     1.0195     
Ni7      Ni     0.275300000000     0.000200000000     0.003570000000     1.00226    
Ni8      Ni     0.219190000000     0.000580000000     0.502730000000     0.984288   
Ni9      Ni     0.986510000000     0.210150000000     0.998480000000     0.997294   
Ni10     Ni     0.985860000000     0.266440000000     0.497850000000     1.03218    
Ni11     Ni     0.236150000000     0.248160000000     0.029790000000     1.01812    
Ni12     Ni     0.236080000000     0.251640000000     0.472520000000     1.02026    
Ni13     Ni     0.511350000000     0.007230000000     0.736760000000     1.01248    
Ni14     Ni     0.504710000000     0.500800000000     0.793330000000     1.02061    
Ni15     Ni     0.471440000000     0.252700000000     0.755590000000     1.01878    
Ni16     Ni     0.027700000000     0.254560000000     0.752040000000     1.00831    
Ni17     Ni     0.254080000000     0.022480000000     0.745480000000     1.01309    
Ni18     Ni     0.257280000000     0.467420000000     0.758430000000     1.0195     
Ni19     Ni     0.275300000000     0.000200000000     0.503570000000     1.00227    
Ni20     Ni     0.219190000000     0.000580000000     0.002730000000     0.98425    
Ni21     Ni     0.986510000000     0.210150000000     0.498480000000     0.997266   
Ni22     Ni     0.985860000000     0.266440000000     0.997850000000     1.03224    
Ni23     Ni     0.236150000000     0.248160000000     0.529790000000     1.01815    
Ni24     Ni     0.236080000000     0.251640000000     0.972520000000     1.02028    
Ni25     Ni     0.511350000000     0.507230000000     0.236760000000     1.01797    
Ni26     Ni     0.504710000000     0.000800000000     0.293330000000     1.00857    
Ni27     Ni     0.471440000000     0.752700000000     0.255590000000     1.01873    
Ni28     Ni     0.027700000000     0.754560000000     0.252040000000     1.0083     
Ni29     Ni     0.254080000000     0.522480000000     0.245480000000     1.01721    
Ni30     Ni     0.257280000000     0.967420000000     0.258430000000     1.02538    
Ni31     Ni     0.275300000000     0.500200000000     0.003570000000     1.01278    
Ni32     Ni     0.219190000000     0.500580000000     0.502730000000     0.99468    
Ni33     Ni     0.986510000000     0.710150000000     0.998480000000     0.997477   
Ni34     Ni     0.985860000000     0.766440000000     0.497850000000     1.03227    
Ni35     Ni     0.236150000000     0.748160000000     0.029790000000     1.0183     
Ni36     Ni     0.236080000000     0.751640000000     0.472520000000     1.0202     
Ni37     Ni     0.511350000000     0.507230000000     0.736760000000     1.01801    
Ni38     Ni     0.504710000000     0.000800000000     0.793330000000     1.00854    
Ni39     Ni     0.471440000000     0.752700000000     0.755590000000     1.01873    
Ni40     Ni     0.027700000000     0.754560000000     0.752040000000     1.0083     
Ni41     Ni     0.254080000000     0.522480000000     0.745480000000     1.01721    
Ni42     Ni     0.257280000000     0.967420000000     0.758430000000     1.02538    
Ni43     Ni     0.275300000000     0.500200000000     0.503570000000     1.01279    
Ni44     Ni     0.219190000000     0.500580000000     0.002730000000     0.994641   
Ni45     Ni     0.986510000000     0.710150000000     0.498480000000     0.997449   
Ni46     Ni     0.985860000000     0.766440000000     0.997850000000     1.03233    
Ni47     Ni     0.236150000000     0.748160000000     0.529790000000     1.01833    
Ni48     Ni     0.236080000000     0.751640000000     0.972520000000     1.02021    
Ni49     Ni     0.011350000000     0.007230000000     0.236760000000     1.01261    
Ni50     Ni     0.004710000000     0.500800000000     0.293330000000     1.02089    
Ni51     Ni     0.971440000000     0.252700000000     0.255590000000     1.01874    
Ni52     Ni     0.527700000000     0.254560000000     0.252040000000     1.00814    
Ni53     Ni     0.754080000000     0.022480000000     0.245480000000     1.0131     
Ni54     Ni     0.757280000000     0.467420000000     0.258430000000     1.0195     
Ni55     Ni     0.775300000000     0.000200000000     0.003570000000     1.0023     
Ni56     Ni     0.719190000000     0.000580000000     0.502730000000     0.984296   
Ni57     Ni     0.486510000000     0.210150000000     0.998480000000     0.997345   
Ni58     Ni     0.485860000000     0.266440000000     0.497850000000     1.0322     
Ni59     Ni     0.736150000000     0.248160000000     0.029790000000     1.01812    
Ni60     Ni     0.736080000000     0.251640000000     0.472520000000     1.02026    
Ni61     Ni     0.011350000000     0.007230000000     0.736760000000     1.01265    
Ni62     Ni     0.004710000000     0.500800000000     0.793330000000     1.02086    
Ni63     Ni     0.971440000000     0.252700000000     0.755590000000     1.01874    
Ni64     Ni     0.527700000000     0.254560000000     0.752040000000     1.00814    
Ni65     Ni     0.754080000000     0.022480000000     0.745480000000     1.0131     
Ni66     Ni     0.757280000000     0.467420000000     0.758430000000     1.0195     
Ni67     Ni     0.775300000000     0.000200000000     0.503570000000     1.00231    
Ni68     Ni     0.719190000000     0.000580000000     0.002730000000     0.984259   
Ni69     Ni     0.486510000000     0.210150000000     0.498480000000     0.997316   
Ni70     Ni     0.485860000000     0.266440000000     0.997850000000     1.03225    
Ni71     Ni     0.736150000000     0.248160000000     0.529790000000     1.01815    
Ni72     Ni     0.736080000000     0.251640000000     0.972520000000     1.02028    
Ni73     Ni     0.011350000000     0.507230000000     0.236760000000     1.01816    
Ni74     Ni     0.004710000000     0.000800000000     0.293330000000     1.0088     
Ni75     Ni     0.971440000000     0.752700000000     0.255590000000     1.01868    
Ni76     Ni     0.527700000000     0.754560000000     0.252040000000     1.00811    
Ni77     Ni     0.754080000000     0.522480000000     0.245480000000     1.01721    
Ni78     Ni     0.757280000000     0.967420000000     0.258430000000     1.02536    
Ni79     Ni     0.775300000000     0.500200000000     0.003570000000     1.01278    
Ni80     Ni     0.719190000000     0.500580000000     0.502730000000     0.994664   
Ni81     Ni     0.486510000000     0.710150000000     0.998480000000     0.997549   
Ni82     Ni     0.485860000000     0.766440000000     0.497850000000     1.03231    
Ni83     Ni     0.736150000000     0.748160000000     0.029790000000     1.0183     
Ni84     Ni     0.736080000000     0.751640000000     0.472520000000     1.0202     
Ni85     Ni     0.011350000000     0.507230000000     0.736760000000     1.0182     
Ni86     Ni     0.004710000000     0.000800000000     0.793330000000     1.00876    
Ni87     Ni     0.971440000000     0.752700000000     0.755590000000     1.01868    
Ni88     Ni     0.527700000000     0.754560000000     0.752040000000     1.00811    
Ni89     Ni     0.754080000000     0.522480000000     0.745480000000     1.01721    
Ni90     Ni     0.757280000000     0.967420000000     0.758430000000     1.02536    
Ni91     Ni     0.775300000000     0.500200000000     0.503570000000     1.0128     
Ni92     Ni     0.719190000000     0.500580000000     0.002730000000     0.994626   
Ni93     Ni     0.486510000000     0.710150000000     0.498480000000     0.99752    
Ni94     Ni     0.485860000000     0.766440000000     0.997850000000     1.03236    
Ni95     Ni     0.736150000000     0.748160000000     0.529790000000     1.01833    
Ni96     Ni     0.736080000000     0.751640000000     0.972520000000     1.02021    
O1       O      0.013180000000     0.052060000000     0.243760000000    -0.431506   
O2       O      0.510180000000     0.461570000000     0.233530000000    -0.440332   
O3       O      0.465780000000     0.009160000000     0.233920000000    -0.44159    
O4       O      0.056000000000     0.505630000000     0.243410000000    -0.444833   
O5       O      0.050270000000     0.998500000000     0.296090000000    -0.41168    
O6       O      0.460080000000     0.502650000000     0.286770000000    -0.442923   
O7       O      0.002530000000     0.455900000000     0.286270000000    -0.430087   
O8       O      0.506190000000     0.046530000000     0.296540000000    -0.440763   
O9       O      0.471600000000     0.297850000000     0.249070000000    -0.438722   
O10      O      0.475170000000     0.207660000000     0.262680000000    -0.441303   
O11      O      0.475450000000     0.260160000000     0.300580000000    -0.448838   
O12      O      0.471180000000     0.245540000000     0.209900000000    -0.427279   
O13      O      0.023400000000     0.252120000000     0.206480000000    -0.450542   
O14      O      0.028090000000     0.256850000000     0.298300000000    -0.441282   
O15      O      0.027270000000     0.209090000000     0.254480000000    -0.445601   
O16      O      0.024340000000     0.299940000000     0.248690000000    -0.44254    
O17      O      0.299550000000     0.023370000000     0.245580000000    -0.439482   
O18      O      0.208930000000     0.017680000000     0.245460000000    -0.443217   
O19      O      0.252960000000     0.030510000000     0.291120000000    -0.425811   
O20      O      0.255510000000     0.010750000000     0.201100000000    -0.452351   
O21      O      0.253920000000     0.459130000000     0.212990000000    -0.42519    
O22      O      0.260780000000     0.479350000000     0.302550000000    -0.449354   
O23      O      0.211950000000     0.467450000000     0.261960000000    -0.437609   
O24      O      0.302310000000     0.471300000000     0.254970000000    -0.448482   
O25      O      0.272660000000     0.502050000000     0.049540000000    -0.445349   
O26      O      0.273890000000     0.998200000000     0.457570000000    -0.435487   
O27      O      0.273610000000     0.045620000000     0.001470000000    -0.445481   
O28      O      0.273040000000     0.454850000000     0.505590000000    -0.446283   
O29      O      0.221120000000     0.455440000000     0.996110000000    -0.442631   
O30      O      0.221440000000     0.045650000000     0.509380000000    -0.442807   
O31      O      0.221890000000     0.506990000000     0.457010000000    -0.439663   
O32      O      0.220550000000     0.994190000000     0.048510000000    -0.437648   
O33      O      0.485330000000     0.212670000000     0.044540000000    -0.443468   
O34      O      0.987700000000     0.211830000000     0.452380000000    -0.443656   
O35      O      0.031910000000     0.212840000000     0.999670000000    -0.4466     
O36      O      0.441050000000     0.211560000000     0.497370000000    -0.440761   
O37      O      0.441120000000     0.263870000000     0.005530000000    -0.421297   
O38      O      0.030640000000     0.264890000000     0.490360000000    -0.429374   
O39      O      0.478700000000     0.263890000000     0.452480000000    -0.423954   
O40      O      0.993240000000     0.265000000000     0.043190000000    -0.440856   
O41      O      0.235150000000     0.202910000000     0.025090000000    -0.448239   
O42      O      0.237110000000     0.293640000000     0.030760000000    -0.435896   
O43      O      0.190740000000     0.248260000000     0.027950000000    -0.447744   
O44      O      0.281610000000     0.248370000000     0.027770000000    -0.435491   
O45      O      0.281450000000     0.250890000000     0.474270000000    -0.437805   
O46      O      0.190730000000     0.252230000000     0.474540000000    -0.447032   
O47      O      0.235630000000     0.296940000000     0.477290000000    -0.44667    
O48      O      0.236550000000     0.206100000000     0.471600000000    -0.435699   
O49      O      0.402360000000     0.295780000000     0.046200000000    -0.0812488  
O50      O      0.384690000000     0.268370000000     0.085870000000    -0.0859887  
O51      O      0.071530000000     0.302850000000     0.459130000000    -0.0931337  
O52      O      0.091190000000     0.280390000000     0.417320000000    -0.111866   
O53      O      0.302040000000     0.331160000000     0.526130000000    -0.10517    
O54      O      0.293200000000     0.355210000000     0.070860000000    -0.0996842  
O55      O      0.302090000000     0.169860000000     0.479250000000    -0.111819   
O56      O      0.295890000000     0.144140000000     0.435020000000    -0.105642   
O57      O      0.192080000000     0.526180000000     0.331210000000    -0.10694    
O58      O      0.195950000000     0.071350000000     0.355060000000    -0.103215   
O59      O      0.191330000000     0.470060000000     0.178260000000    -0.108637   
O60      O      0.213230000000     0.423650000000     0.179220000000    -0.0880553  
O61      O      0.941380000000     0.296760000000     0.417930000000    -0.0876949  
O62      O      0.418370000000     0.250900000000     0.420400000000    -0.104644   
O63      O      0.446910000000     0.277040000000     0.139000000000    -0.0810473  
O64      O      0.421440000000     0.242460000000     0.166780000000    -0.084149   
O65      O      0.082680000000     0.439980000000     0.290680000000    -0.105251   
O66      O      0.085470000000     0.466220000000     0.335350000000    -0.0865075  
O67      O      0.376970000000     0.058250000000     0.273620000000    -0.098114   
O68      O      0.369390000000     0.079040000000     0.227070000000    -0.104666   
O69      O      0.435280000000     0.422330000000     0.254090000000    -0.11175    
O70      O      0.430960000000     0.397800000000     0.299280000000    -0.108452   
O71      O      0.053370000000     0.091190000000     0.213800000000    -0.100502   
O72      O      0.090690000000     0.110570000000     0.242810000000    -0.111394   
O73      O      0.013180000000     0.052060000000     0.743760000000    -0.431508   
O74      O      0.510180000000     0.461570000000     0.733530000000    -0.440336   
O75      O      0.465780000000     0.009160000000     0.733920000000    -0.441682   
O76      O      0.056000000000     0.505630000000     0.743410000000    -0.444837   
O77      O      0.050270000000     0.998500000000     0.796090000000    -0.411675   
O78      O      0.460080000000     0.502650000000     0.786770000000    -0.442809   
O79      O      0.002530000000     0.455900000000     0.786270000000    -0.430083   
O80      O      0.506190000000     0.046530000000     0.796540000000    -0.44076    
O81      O      0.471600000000     0.297850000000     0.749070000000    -0.438722   
O82      O      0.475170000000     0.207660000000     0.762680000000    -0.441303   
O83      O      0.475450000000     0.260160000000     0.800580000000    -0.448839   
O84      O      0.471180000000     0.245540000000     0.709900000000    -0.427279   
O85      O      0.023400000000     0.252120000000     0.706480000000    -0.450542   
O86      O      0.028090000000     0.256850000000     0.798300000000    -0.441282   
O87      O      0.027270000000     0.209090000000     0.754480000000    -0.445601   
O88      O      0.024340000000     0.299940000000     0.748690000000    -0.442539   
O89      O      0.299550000000     0.023370000000     0.745580000000    -0.439482   
O90      O      0.208930000000     0.017680000000     0.745460000000    -0.443217   
O91      O      0.252960000000     0.030510000000     0.791120000000    -0.425811   
O92      O      0.255510000000     0.010750000000     0.701100000000    -0.452351   
O93      O      0.253920000000     0.459130000000     0.712990000000    -0.42519    
O94      O      0.260780000000     0.479350000000     0.802550000000    -0.449354   
O95      O      0.211950000000     0.467450000000     0.761960000000    -0.437609   
O96      O      0.302310000000     0.471300000000     0.754970000000    -0.448482   
O97      O      0.272660000000     0.502050000000     0.549540000000    -0.445351   
O98      O      0.273890000000     0.998200000000     0.957570000000    -0.435473   
O99      O      0.273610000000     0.045620000000     0.501470000000    -0.445477   
O100     O      0.273040000000     0.454850000000     0.005590000000    -0.446303   
O101     O      0.221120000000     0.455440000000     0.496110000000    -0.442645   
O102     O      0.221440000000     0.045650000000     0.009380000000    -0.442806   
O103     O      0.221890000000     0.506990000000     0.957010000000    -0.439645   
O104     O      0.220550000000     0.994190000000     0.548510000000    -0.437651   
O105     O      0.485330000000     0.212670000000     0.544540000000    -0.44345    
O106     O      0.987700000000     0.211830000000     0.952380000000    -0.443768   
O107     O      0.031910000000     0.212840000000     0.499670000000    -0.446607   
O108     O      0.441050000000     0.211560000000     0.997370000000    -0.440743   
O109     O      0.441120000000     0.263870000000     0.505530000000    -0.421283   
O110     O      0.030640000000     0.264890000000     0.990360000000    -0.429377   
O111     O      0.478700000000     0.263890000000     0.952480000000    -0.42407    
O112     O      0.993240000000     0.265000000000     0.543190000000    -0.440835   
O113     O      0.235150000000     0.202910000000     0.525090000000    -0.448222   
O114     O      0.237110000000     0.293640000000     0.530760000000    -0.435903   
O115     O      0.190740000000     0.248260000000     0.527950000000    -0.44775    
O116     O      0.281610000000     0.248370000000     0.527770000000    -0.435497   
O117     O      0.281450000000     0.250890000000     0.974270000000    -0.437786   
O118     O      0.190730000000     0.252230000000     0.974540000000    -0.447013   
O119     O      0.235630000000     0.296940000000     0.977290000000    -0.44665    
O120     O      0.236550000000     0.206100000000     0.971600000000    -0.435704   
O121     O      0.402360000000     0.295780000000     0.546200000000    -0.0812454  
O122     O      0.384690000000     0.268370000000     0.585870000000    -0.0859874  
O123     O      0.071530000000     0.302850000000     0.959130000000    -0.0931281  
O124     O      0.091190000000     0.280390000000     0.917320000000    -0.111865   
O125     O      0.302040000000     0.331160000000     0.026130000000    -0.105175   
O126     O      0.293200000000     0.355210000000     0.570860000000    -0.0996832  
O127     O      0.302090000000     0.169860000000     0.979250000000    -0.11181    
O128     O      0.295890000000     0.144140000000     0.935020000000    -0.105641   
O129     O      0.192080000000     0.526180000000     0.831210000000    -0.10694    
O130     O      0.195950000000     0.071350000000     0.855060000000    -0.103214   
O131     O      0.191330000000     0.470060000000     0.678260000000    -0.108637   
O132     O      0.213230000000     0.423650000000     0.679220000000    -0.0880551  
O133     O      0.941380000000     0.296760000000     0.917930000000    -0.0876945  
O134     O      0.418370000000     0.250900000000     0.920400000000    -0.104651   
O135     O      0.446910000000     0.277040000000     0.638990000000    -0.0810473  
O136     O      0.421440000000     0.242460000000     0.666790000000    -0.0841533  
O137     O      0.082680000000     0.439980000000     0.790670000000    -0.105261   
O138     O      0.085470000000     0.466220000000     0.835350000000    -0.0865065  
O139     O      0.376970000000     0.058250000000     0.773620000000    -0.0981126  
O140     O      0.369390000000     0.079040000000     0.727070000000    -0.104666   
O141     O      0.435280000000     0.422330000000     0.754090000000    -0.111751   
O142     O      0.430960000000     0.397800000000     0.799280000000    -0.108452   
O143     O      0.053370000000     0.091190000000     0.713800000000    -0.100496   
O144     O      0.090690000000     0.110570000000     0.742810000000    -0.111383   
O145     O      0.013180000000     0.552060000000     0.243760000000    -0.432396   
O146     O      0.510180000000     0.961560000000     0.233530000000    -0.435779   
O147     O      0.465780000000     0.509160000000     0.233920000000    -0.441072   
O148     O      0.056000000000     0.005630000000     0.243410000000    -0.443847   
O149     O      0.050270000000     0.498500000000     0.296090000000    -0.421409   
O150     O      0.460080000000     0.002650000000     0.286770000000    -0.442899   
O151     O      0.002530000000     0.955900000000     0.286270000000    -0.425318   
O152     O      0.506190000000     0.546520000000     0.296540000000    -0.441946   
O153     O      0.471600000000     0.797850000000     0.249070000000    -0.438706   
O154     O      0.475170000000     0.707660000000     0.262680000000    -0.44127    
O155     O      0.475450000000     0.760160000000     0.300580000000    -0.448836   
O156     O      0.471180000000     0.745540000000     0.209900000000    -0.427274   
O157     O      0.023400000000     0.752120000000     0.206480000000    -0.450516   
O158     O      0.028090000000     0.756850000000     0.298300000000    -0.441276   
O159     O      0.027270000000     0.709090000000     0.254480000000    -0.44557    
O160     O      0.024340000000     0.799940000000     0.248690000000    -0.442507   
O161     O      0.299550000000     0.523370000000     0.245580000000    -0.434514   
O162     O      0.208930000000     0.517680000000     0.245460000000    -0.438248   
O163     O      0.252960000000     0.530510000000     0.291120000000    -0.427298   
O164     O      0.255510000000     0.510750000000     0.201100000000    -0.446774   
O165     O      0.253920000000     0.959130000000     0.212990000000    -0.427067   
O166     O      0.260780000000     0.979350000000     0.302550000000    -0.444447   
O167     O      0.211950000000     0.967450000000     0.261960000000    -0.439041   
O168     O      0.302310000000     0.971300000000     0.254970000000    -0.450081   
O169     O      0.272660000000     0.002050000000     0.049540000000    -0.44943    
O170     O      0.273890000000     0.498200000000     0.457570000000    -0.4453     
O171     O      0.273610000000     0.545620000000     0.001470000000    -0.446463   
O172     O      0.273040000000     0.954850000000     0.505590000000    -0.441677   
O173     O      0.221120000000     0.955440000000     0.996110000000    -0.437944   
O174     O      0.221440000000     0.545650000000     0.509380000000    -0.443609   
O175     O      0.221890000000     0.006990000000     0.457010000000    -0.437734   
O176     O      0.220550000000     0.494190000000     0.048510000000    -0.441246   
O177     O      0.485330000000     0.712670000000     0.044540000000    -0.443377   
O178     O      0.987700000000     0.711830000000     0.452380000000    -0.443575   
O179     O      0.031910000000     0.712840000000     0.999670000000    -0.446432   
O180     O      0.441050000000     0.711560000000     0.497370000000    -0.440671   
O181     O      0.441120000000     0.763870000000     0.005530000000    -0.421233   
O182     O      0.030640000000     0.764900000000     0.490360000000    -0.429124   
O183     O      0.478700000000     0.763890000000     0.452480000000    -0.423908   
O184     O      0.993240000000     0.765000000000     0.043190000000    -0.440776   
O185     O      0.235150000000     0.702920000000     0.025090000000    -0.448297   
O186     O      0.237110000000     0.793640000000     0.030760000000    -0.435922   
O187     O      0.190740000000     0.748250000000     0.027950000000    -0.447735   
O188     O      0.281610000000     0.748380000000     0.027770000000    -0.435519   
O189     O      0.281450000000     0.750890000000     0.474270000000    -0.4378     
O190     O      0.190730000000     0.752230000000     0.474540000000    -0.447011   
O191     O      0.235630000000     0.796940000000     0.477290000000    -0.446649   
O192     O      0.236550000000     0.706100000000     0.471600000000    -0.435669   
O193     O      0.402360000000     0.795790000000     0.046200000000    -0.0810203  
O194     O      0.384690000000     0.768370000000     0.085870000000    -0.0859112  
O195     O      0.071530000000     0.802850000000     0.459130000000    -0.0928609  
O196     O      0.091190000000     0.780390000000     0.417320000000    -0.111768   
O197     O      0.302040000000     0.831160000000     0.526130000000    -0.105027   
O198     O      0.293200000000     0.855210000000     0.070860000000    -0.0994234  
O199     O      0.302090000000     0.669850000000     0.479250000000    -0.111751   
O200     O      0.295890000000     0.644140000000     0.435020000000    -0.105453   
O201     O      0.192080000000     0.026180000000     0.331210000000    -0.109496   
O202     O      0.195950000000     0.571350000000     0.355060000000    -0.102719   
O203     O      0.191330000000     0.970060000000     0.178260000000    -0.106761   
O204     O      0.213230000000     0.923650000000     0.179220000000    -0.0879805  
O205     O      0.941380000000     0.796770000000     0.417930000000    -0.0874804  
O206     O      0.418370000000     0.750910000000     0.420400000000    -0.104592   
O207     O      0.446910000000     0.777040000000     0.139000000000    -0.0809464  
O208     O      0.421440000000     0.742460000000     0.166780000000    -0.084117   
O209     O      0.082680000000     0.939980000000     0.290680000000    -0.104241   
O210     O      0.085470000000     0.966220000000     0.335350000000    -0.0848535  
O211     O      0.376970000000     0.558250000000     0.273620000000    -0.0975607  
O212     O      0.369390000000     0.579040000000     0.227070000000    -0.104477   
O213     O      0.435280000000     0.922330000000     0.254090000000    -0.110941   
O214     O      0.430960000000     0.897800000000     0.299280000000    -0.107976   
O215     O      0.053370000000     0.591190000000     0.213800000000    -0.10007    
O216     O      0.090690000000     0.610570000000     0.242810000000    -0.111194   
O217     O      0.013180000000     0.552060000000     0.743760000000    -0.432398   
O218     O      0.510180000000     0.961560000000     0.733530000000    -0.435782   
O219     O      0.465780000000     0.509160000000     0.733920000000    -0.441165   
O220     O      0.056000000000     0.005630000000     0.743410000000    -0.443851   
O221     O      0.050270000000     0.498500000000     0.796090000000    -0.421404   
O222     O      0.460080000000     0.002650000000     0.786770000000    -0.442786   
O223     O      0.002530000000     0.955900000000     0.786270000000    -0.425315   
O224     O      0.506190000000     0.546520000000     0.796540000000    -0.441943   
O225     O      0.471600000000     0.797850000000     0.749070000000    -0.438706   
O226     O      0.475170000000     0.707660000000     0.762680000000    -0.44127    
O227     O      0.475450000000     0.760160000000     0.800580000000    -0.448836   
O228     O      0.471180000000     0.745540000000     0.709900000000    -0.427274   
O229     O      0.023400000000     0.752120000000     0.706480000000    -0.450516   
O230     O      0.028090000000     0.756850000000     0.798300000000    -0.441276   
O231     O      0.027270000000     0.709090000000     0.754480000000    -0.44557    
O232     O      0.024340000000     0.799940000000     0.748690000000    -0.442507   
O233     O      0.299550000000     0.523370000000     0.745580000000    -0.434514   
O234     O      0.208930000000     0.517680000000     0.745460000000    -0.438248   
O235     O      0.252960000000     0.530510000000     0.791120000000    -0.427298   
O236     O      0.255510000000     0.510750000000     0.701100000000    -0.446774   
O237     O      0.253920000000     0.959130000000     0.712990000000    -0.427067   
O238     O      0.260780000000     0.979350000000     0.802550000000    -0.444447   
O239     O      0.211950000000     0.967450000000     0.761960000000    -0.439041   
O240     O      0.302310000000     0.971300000000     0.754970000000    -0.450081   
O241     O      0.272660000000     0.002050000000     0.549540000000    -0.449432   
O242     O      0.273890000000     0.498200000000     0.957570000000    -0.445285   
O243     O      0.273610000000     0.545620000000     0.501470000000    -0.446458   
O244     O      0.273040000000     0.954850000000     0.005590000000    -0.441696   
O245     O      0.221120000000     0.955440000000     0.496110000000    -0.437958   
O246     O      0.221440000000     0.545650000000     0.009380000000    -0.443608   
O247     O      0.221890000000     0.006990000000     0.957010000000    -0.437716   
O248     O      0.220550000000     0.494190000000     0.548510000000    -0.441249   
O249     O      0.485330000000     0.712670000000     0.544540000000    -0.443359   
O250     O      0.987700000000     0.711830000000     0.952380000000    -0.443687   
O251     O      0.031910000000     0.712840000000     0.499670000000    -0.446439   
O252     O      0.441050000000     0.711560000000     0.997370000000    -0.440653   
O253     O      0.441120000000     0.763870000000     0.505530000000    -0.421219   
O254     O      0.030640000000     0.764900000000     0.990360000000    -0.429127   
O255     O      0.478700000000     0.763890000000     0.952480000000    -0.424023   
O256     O      0.993240000000     0.765000000000     0.543190000000    -0.440756   
O257     O      0.235150000000     0.702920000000     0.525090000000    -0.44828    
O258     O      0.237110000000     0.793640000000     0.530760000000    -0.435929   
O259     O      0.190740000000     0.748250000000     0.527950000000    -0.447741   
O260     O      0.281610000000     0.748380000000     0.527770000000    -0.435525   
O261     O      0.281450000000     0.750890000000     0.974270000000    -0.437781   
O262     O      0.190730000000     0.752230000000     0.974540000000    -0.446993   
O263     O      0.235630000000     0.796940000000     0.977290000000    -0.446629   
O264     O      0.236550000000     0.706100000000     0.971600000000    -0.435674   
O265     O      0.402360000000     0.795790000000     0.546200000000    -0.0810169  
O266     O      0.384690000000     0.768370000000     0.585870000000    -0.0859099  
O267     O      0.071530000000     0.802850000000     0.959130000000    -0.0928554  
O268     O      0.091190000000     0.780390000000     0.917320000000    -0.111767   
O269     O      0.302040000000     0.831160000000     0.026130000000    -0.105033   
O270     O      0.293200000000     0.855210000000     0.570860000000    -0.0994224  
O271     O      0.302090000000     0.669850000000     0.979250000000    -0.111742   
O272     O      0.295890000000     0.644140000000     0.935020000000    -0.105451   
O273     O      0.192080000000     0.026180000000     0.831210000000    -0.109495   
O274     O      0.195950000000     0.571350000000     0.855060000000    -0.102718   
O275     O      0.191330000000     0.970060000000     0.678260000000    -0.10676    
O276     O      0.213230000000     0.923650000000     0.679220000000    -0.0879803  
O277     O      0.941380000000     0.796770000000     0.917930000000    -0.08748    
O278     O      0.418370000000     0.750910000000     0.920400000000    -0.104599   
O279     O      0.446910000000     0.777040000000     0.638990000000    -0.0809464  
O280     O      0.421440000000     0.742460000000     0.666790000000    -0.0841213  
O281     O      0.082680000000     0.939980000000     0.790670000000    -0.10425    
O282     O      0.085470000000     0.966220000000     0.835350000000    -0.0848526  
O283     O      0.376970000000     0.558250000000     0.773620000000    -0.0975593  
O284     O      0.369390000000     0.579040000000     0.727070000000    -0.104477   
O285     O      0.435280000000     0.922330000000     0.754090000000    -0.110942   
O286     O      0.430960000000     0.897800000000     0.799280000000    -0.107976   
O287     O      0.053370000000     0.591190000000     0.713800000000    -0.100064   
O288     O      0.090690000000     0.610570000000     0.742810000000    -0.111182   
O289     O      0.513180000000     0.052060000000     0.243760000000    -0.431529   
O290     O      0.010180000000     0.461570000000     0.233530000000    -0.440312   
O291     O      0.965780000000     0.009160000000     0.233920000000    -0.441667   
O292     O      0.556000000000     0.505630000000     0.243410000000    -0.444807   
O293     O      0.550270000000     0.998500000000     0.296090000000    -0.411671   
O294     O      0.960080000000     0.502650000000     0.286770000000    -0.443043   
O295     O      0.502520000000     0.455900000000     0.286270000000    -0.430103   
O296     O      0.006190000000     0.046530000000     0.296540000000    -0.440727   
O297     O      0.971600000000     0.297850000000     0.249070000000    -0.438711   
O298     O      0.975180000000     0.207660000000     0.262680000000    -0.441581   
O299     O      0.975450000000     0.260160000000     0.300580000000    -0.448948   
O300     O      0.971180000000     0.245540000000     0.209900000000    -0.427267   
O301     O      0.523400000000     0.252120000000     0.206480000000    -0.450631   
O302     O      0.528090000000     0.256850000000     0.298300000000    -0.44124    
O303     O      0.527270000000     0.209090000000     0.254480000000    -0.445494   
O304     O      0.524340000000     0.299940000000     0.248690000000    -0.442626   
O305     O      0.799550000000     0.023370000000     0.245580000000    -0.439463   
O306     O      0.708930000000     0.017680000000     0.245460000000    -0.443206   
O307     O      0.752960000000     0.030510000000     0.291120000000    -0.425815   
O308     O      0.755510000000     0.010750000000     0.201100000000    -0.452334   
O309     O      0.753920000000     0.459130000000     0.212990000000    -0.42519    
O310     O      0.760780000000     0.479350000000     0.302550000000    -0.449354   
O311     O      0.711950000000     0.467450000000     0.261960000000    -0.437609   
O312     O      0.802310000000     0.471300000000     0.254970000000    -0.448482   
O313     O      0.772660000000     0.502050000000     0.049540000000    -0.445349   
O314     O      0.773890000000     0.998200000000     0.457570000000    -0.43552    
O315     O      0.773610000000     0.045620000000     0.001470000000    -0.445485   
O316     O      0.773040000000     0.454850000000     0.505590000000    -0.446283   
O317     O      0.721120000000     0.455440000000     0.996110000000    -0.442635   
O318     O      0.721440000000     0.045650000000     0.509380000000    -0.442813   
O319     O      0.721890000000     0.506990000000     0.457010000000    -0.439666   
O320     O      0.720550000000     0.994190000000     0.048510000000    -0.43766    
O321     O      0.985330000000     0.212670000000     0.044540000000    -0.443472   
O322     O      0.487700000000     0.211830000000     0.452380000000    -0.443648   
O323     O      0.531910000000     0.212840000000     0.999670000000    -0.446699   
O324     O      0.941050000000     0.211560000000     0.497370000000    -0.440748   
O325     O      0.941120000000     0.263870000000     0.005530000000    -0.421277   
O326     O      0.530640000000     0.264890000000     0.490360000000    -0.429461   
O327     O      0.978700000000     0.263890000000     0.452480000000    -0.423962   
O328     O      0.493250000000     0.265000000000     0.043190000000    -0.44081    
O329     O      0.735150000000     0.202910000000     0.025090000000    -0.448239   
O330     O      0.737110000000     0.293640000000     0.030760000000    -0.435898   
O331     O      0.690740000000     0.248260000000     0.027950000000    -0.447746   
O332     O      0.781610000000     0.248370000000     0.027770000000    -0.43549    
O333     O      0.781450000000     0.250890000000     0.474270000000    -0.437804   
O334     O      0.690730000000     0.252230000000     0.474540000000    -0.447033   
O335     O      0.735630000000     0.296940000000     0.477290000000    -0.446669   
O336     O      0.736550000000     0.206100000000     0.471600000000    -0.435699   
O337     O      0.902360000000     0.295780000000     0.046200000000    -0.0812434  
O338     O      0.884690000000     0.268370000000     0.085870000000    -0.0859874  
O339     O      0.571530000000     0.302850000000     0.459130000000    -0.0931734  
O340     O      0.591190000000     0.280390000000     0.417320000000    -0.111881   
O341     O      0.802040000000     0.331160000000     0.526130000000    -0.105164   
O342     O      0.793210000000     0.355210000000     0.070860000000    -0.099676   
O343     O      0.802090000000     0.169860000000     0.479250000000    -0.111818   
O344     O      0.795890000000     0.144140000000     0.435020000000    -0.105641   
O345     O      0.692080000000     0.526180000000     0.331210000000    -0.106942   
O346     O      0.695950000000     0.071350000000     0.355060000000    -0.103219   
O347     O      0.691330000000     0.470060000000     0.178260000000    -0.108641   
O348     O      0.713230000000     0.423650000000     0.179220000000    -0.0880576  
O349     O      0.441380000000     0.296760000000     0.417930000000    -0.0876957  
O350     O      0.918370000000     0.250900000000     0.420400000000    -0.104644   
O351     O      0.946910000000     0.277040000000     0.139000000000    -0.0810524  
O352     O      0.921440000000     0.242460000000     0.166780000000    -0.0841516  
O353     O      0.582680000000     0.439980000000     0.290680000000    -0.10526    
O354     O      0.585470000000     0.466220000000     0.335350000000    -0.0865302  
O355     O      0.876970000000     0.058250000000     0.273620000000    -0.098116   
O356     O      0.869390000000     0.079040000000     0.227070000000    -0.104669   
O357     O      0.935280000000     0.422330000000     0.254090000000    -0.111773   
O358     O      0.930960000000     0.397800000000     0.299280000000    -0.108455   
O359     O      0.553370000000     0.091190000000     0.213800000000    -0.100534   
O360     O      0.590690000000     0.110570000000     0.242810000000    -0.111399   
O361     O      0.513180000000     0.052060000000     0.743760000000    -0.431531   
O362     O      0.010180000000     0.461570000000     0.733530000000    -0.440315   
O363     O      0.965780000000     0.009160000000     0.733920000000    -0.44176    
O364     O      0.556000000000     0.505630000000     0.743410000000    -0.444811   
O365     O      0.550270000000     0.998500000000     0.796090000000    -0.411666   
O366     O      0.960080000000     0.502650000000     0.786770000000    -0.442929   
O367     O      0.502520000000     0.455900000000     0.786270000000    -0.4301     
O368     O      0.006190000000     0.046530000000     0.796540000000    -0.440723   
O369     O      0.971600000000     0.297850000000     0.749070000000    -0.438711   
O370     O      0.975180000000     0.207660000000     0.762680000000    -0.441582   
O371     O      0.975450000000     0.260160000000     0.800580000000    -0.448949   
O372     O      0.971180000000     0.245540000000     0.709900000000    -0.427267   
O373     O      0.523400000000     0.252120000000     0.706480000000    -0.450631   
O374     O      0.528090000000     0.256850000000     0.798300000000    -0.44124    
O375     O      0.527270000000     0.209090000000     0.754480000000    -0.445495   
O376     O      0.524340000000     0.299940000000     0.748690000000    -0.442626   
O377     O      0.799550000000     0.023370000000     0.745580000000    -0.439463   
O378     O      0.708930000000     0.017680000000     0.745460000000    -0.443206   
O379     O      0.752960000000     0.030510000000     0.791120000000    -0.425816   
O380     O      0.755510000000     0.010750000000     0.701100000000    -0.452334   
O381     O      0.753920000000     0.459130000000     0.712990000000    -0.42519    
O382     O      0.760780000000     0.479350000000     0.802550000000    -0.449354   
O383     O      0.711950000000     0.467450000000     0.761960000000    -0.437609   
O384     O      0.802310000000     0.471300000000     0.754970000000    -0.448482   
O385     O      0.772660000000     0.502050000000     0.549540000000    -0.445351   
O386     O      0.773890000000     0.998200000000     0.957570000000    -0.435505   
O387     O      0.773610000000     0.045620000000     0.501470000000    -0.44548    
O388     O      0.773040000000     0.454850000000     0.005590000000    -0.446303   
O389     O      0.721120000000     0.455440000000     0.496110000000    -0.442649   
O390     O      0.721440000000     0.045650000000     0.009380000000    -0.442812   
O391     O      0.721890000000     0.506990000000     0.957010000000    -0.439649   
O392     O      0.720550000000     0.994190000000     0.548510000000    -0.437663   
O393     O      0.985330000000     0.212670000000     0.544540000000    -0.443455   
O394     O      0.487700000000     0.211830000000     0.952380000000    -0.44376    
O395     O      0.531910000000     0.212840000000     0.499670000000    -0.446706   
O396     O      0.941050000000     0.211560000000     0.997370000000    -0.44073    
O397     O      0.941120000000     0.263870000000     0.505530000000    -0.421263   
O398     O      0.530640000000     0.264890000000     0.990360000000    -0.429464   
O399     O      0.978700000000     0.263890000000     0.952480000000    -0.424077   
O400     O      0.493250000000     0.265000000000     0.543190000000    -0.440789   
O401     O      0.735150000000     0.202910000000     0.525090000000    -0.448222   
O402     O      0.737110000000     0.293640000000     0.530760000000    -0.435904   
O403     O      0.690740000000     0.248260000000     0.527950000000    -0.447752   
O404     O      0.781610000000     0.248370000000     0.527770000000    -0.435496   
O405     O      0.781450000000     0.250890000000     0.974270000000    -0.437786   
O406     O      0.690730000000     0.252230000000     0.974540000000    -0.447014   
O407     O      0.735630000000     0.296940000000     0.977290000000    -0.44665    
O408     O      0.736550000000     0.206100000000     0.971600000000    -0.435705   
O409     O      0.902360000000     0.295780000000     0.546200000000    -0.0812401  
O410     O      0.884690000000     0.268370000000     0.585870000000    -0.085986   
O411     O      0.571530000000     0.302850000000     0.959130000000    -0.0931679  
O412     O      0.591190000000     0.280390000000     0.917320000000    -0.11188    
O413     O      0.802040000000     0.331160000000     0.026130000000    -0.10517    
O414     O      0.793210000000     0.355210000000     0.570860000000    -0.099675   
O415     O      0.802090000000     0.169860000000     0.979250000000    -0.111809   
O416     O      0.795890000000     0.144140000000     0.935020000000    -0.10564    
O417     O      0.692080000000     0.526180000000     0.831210000000    -0.106942   
O418     O      0.695950000000     0.071350000000     0.855060000000    -0.103218   
O419     O      0.691330000000     0.470060000000     0.678260000000    -0.108641   
O420     O      0.713230000000     0.423650000000     0.679220000000    -0.0880574  
O421     O      0.441380000000     0.296760000000     0.917930000000    -0.0876952  
O422     O      0.918370000000     0.250900000000     0.920400000000    -0.10465    
O423     O      0.946910000000     0.277040000000     0.638990000000    -0.0810524  
O424     O      0.921440000000     0.242460000000     0.666790000000    -0.0841558  
O425     O      0.582680000000     0.439980000000     0.790670000000    -0.10527    
O426     O      0.585470000000     0.466220000000     0.835350000000    -0.0865292  
O427     O      0.876970000000     0.058250000000     0.773620000000    -0.0981146  
O428     O      0.869390000000     0.079040000000     0.727070000000    -0.104669   
O429     O      0.935280000000     0.422330000000     0.754090000000    -0.111774   
O430     O      0.930960000000     0.397800000000     0.799280000000    -0.108455   
O431     O      0.553370000000     0.091190000000     0.713800000000    -0.100528   
O432     O      0.590690000000     0.110570000000     0.742810000000    -0.111388   
O433     O      0.513180000000     0.552060000000     0.243760000000    -0.432419   
O434     O      0.010180000000     0.961560000000     0.233530000000    -0.435754   
O435     O      0.965780000000     0.509160000000     0.233920000000    -0.441171   
O436     O      0.556000000000     0.005630000000     0.243410000000    -0.443824   
O437     O      0.550270000000     0.498500000000     0.296090000000    -0.421391   
O438     O      0.960080000000     0.002650000000     0.286770000000    -0.442995   
O439     O      0.502520000000     0.955900000000     0.286270000000    -0.42534    
O440     O      0.006190000000     0.546520000000     0.296540000000    -0.441908   
O441     O      0.971600000000     0.797850000000     0.249070000000    -0.438689   
O442     O      0.975180000000     0.707660000000     0.262680000000    -0.441562   
O443     O      0.975450000000     0.760160000000     0.300580000000    -0.448958   
O444     O      0.971180000000     0.745540000000     0.209900000000    -0.427257   
O445     O      0.523400000000     0.752120000000     0.206480000000    -0.450619   
O446     O      0.528090000000     0.756850000000     0.298300000000    -0.441231   
O447     O      0.527270000000     0.709090000000     0.254480000000    -0.445459   
O448     O      0.524340000000     0.799940000000     0.248690000000    -0.442609   
O449     O      0.799550000000     0.523370000000     0.245580000000    -0.434513   
O450     O      0.708930000000     0.517680000000     0.245460000000    -0.438247   
O451     O      0.752960000000     0.530510000000     0.291120000000    -0.427298   
O452     O      0.755510000000     0.510750000000     0.201100000000    -0.446774   
O453     O      0.753920000000     0.959130000000     0.212990000000    -0.427061   
O454     O      0.760780000000     0.979350000000     0.302550000000    -0.444463   
O455     O      0.711950000000     0.967450000000     0.261960000000    -0.439037   
O456     O      0.802310000000     0.971300000000     0.254970000000    -0.450075   
O457     O      0.772660000000     0.002050000000     0.049540000000    -0.449417   
O458     O      0.773890000000     0.498200000000     0.457570000000    -0.445301   
O459     O      0.773610000000     0.545620000000     0.001470000000    -0.446463   
O460     O      0.773040000000     0.954850000000     0.505590000000    -0.441693   
O461     O      0.721120000000     0.955440000000     0.996110000000    -0.437959   
O462     O      0.721440000000     0.545650000000     0.509380000000    -0.443612   
O463     O      0.721890000000     0.006990000000     0.457010000000    -0.437743   
O464     O      0.720550000000     0.494190000000     0.048510000000    -0.44125    
O465     O      0.985330000000     0.712670000000     0.044540000000    -0.443383   
O466     O      0.487700000000     0.711830000000     0.452380000000    -0.443562   
O467     O      0.531910000000     0.712840000000     0.999670000000    -0.446544   
O468     O      0.941050000000     0.711560000000     0.497370000000    -0.440655   
O469     O      0.941120000000     0.763870000000     0.005530000000    -0.421211   
O470     O      0.530640000000     0.764900000000     0.490360000000    -0.429225   
O471     O      0.978700000000     0.763890000000     0.452480000000    -0.423918   
O472     O      0.493250000000     0.765000000000     0.043190000000    -0.440726   
O473     O      0.735150000000     0.702920000000     0.025090000000    -0.448297   
O474     O      0.737110000000     0.793640000000     0.030760000000    -0.435924   
O475     O      0.690740000000     0.748250000000     0.027950000000    -0.447737   
O476     O      0.781610000000     0.748380000000     0.027770000000    -0.435518   
O477     O      0.781450000000     0.750890000000     0.474270000000    -0.4378     
O478     O      0.690730000000     0.752230000000     0.474540000000    -0.447012   
O479     O      0.735630000000     0.796940000000     0.477290000000    -0.446648   
O480     O      0.736550000000     0.706100000000     0.471600000000    -0.435669   
O481     O      0.902360000000     0.795790000000     0.046200000000    -0.0810172  
O482     O      0.884690000000     0.768370000000     0.085870000000    -0.0859106  
O483     O      0.571530000000     0.802850000000     0.459130000000    -0.0929033  
O484     O      0.591190000000     0.780390000000     0.417320000000    -0.111784   
O485     O      0.802040000000     0.831160000000     0.526130000000    -0.105023   
O486     O      0.793210000000     0.855210000000     0.070860000000    -0.0994165  
O487     O      0.802090000000     0.669850000000     0.479250000000    -0.11175    
O488     O      0.795890000000     0.644140000000     0.435020000000    -0.105453   
O489     O      0.692080000000     0.026180000000     0.331210000000    -0.109493   
O490     O      0.695950000000     0.571350000000     0.355060000000    -0.102724   
O491     O      0.691330000000     0.970060000000     0.178260000000    -0.106769   
O492     O      0.713230000000     0.923650000000     0.179220000000    -0.0879829  
O493     O      0.441380000000     0.796770000000     0.417930000000    -0.087478   
O494     O      0.918370000000     0.750910000000     0.420400000000    -0.104592   
O495     O      0.946910000000     0.777040000000     0.139000000000    -0.0809544  
O496     O      0.921440000000     0.742460000000     0.166780000000    -0.0841201  
O497     O      0.582680000000     0.939980000000     0.290680000000    -0.104251   
O498     O      0.585470000000     0.966220000000     0.335350000000    -0.0848785  
O499     O      0.876970000000     0.558250000000     0.273620000000    -0.0975662  
O500     O      0.869390000000     0.579040000000     0.227070000000    -0.104481   
O501     O      0.935280000000     0.922330000000     0.254090000000    -0.110972   
O502     O      0.930960000000     0.897800000000     0.299280000000    -0.107983   
O503     O      0.553370000000     0.591190000000     0.213800000000    -0.100104   
O504     O      0.590690000000     0.610570000000     0.242810000000    -0.1112     
O505     O      0.513180000000     0.552060000000     0.743760000000    -0.432421   
O506     O      0.010180000000     0.961560000000     0.733530000000    -0.435758   
O507     O      0.965780000000     0.509160000000     0.733920000000    -0.441263   
O508     O      0.556000000000     0.005630000000     0.743410000000    -0.443828   
O509     O      0.550270000000     0.498500000000     0.796090000000    -0.421385   
O510     O      0.960080000000     0.002650000000     0.786770000000    -0.442882   
O511     O      0.502520000000     0.955900000000     0.786270000000    -0.425337   
O512     O      0.006190000000     0.546520000000     0.796540000000    -0.441904   
O513     O      0.971600000000     0.797850000000     0.749070000000    -0.438689   
O514     O      0.975180000000     0.707660000000     0.762680000000    -0.441563   
O515     O      0.975450000000     0.760160000000     0.800580000000    -0.448959   
O516     O      0.971180000000     0.745540000000     0.709900000000    -0.427257   
O517     O      0.523400000000     0.752120000000     0.706480000000    -0.450619   
O518     O      0.528090000000     0.756850000000     0.798300000000    -0.441231   
O519     O      0.527270000000     0.709090000000     0.754480000000    -0.44546    
O520     O      0.524340000000     0.799940000000     0.748690000000    -0.442609   
O521     O      0.799550000000     0.523370000000     0.745580000000    -0.434514   
O522     O      0.708930000000     0.517680000000     0.745460000000    -0.438247   
O523     O      0.752960000000     0.530510000000     0.791120000000    -0.427298   
O524     O      0.755510000000     0.510750000000     0.701100000000    -0.446774   
O525     O      0.753920000000     0.959130000000     0.712990000000    -0.427061   
O526     O      0.760780000000     0.979350000000     0.802550000000    -0.444463   
O527     O      0.711950000000     0.967450000000     0.761960000000    -0.439037   
O528     O      0.802310000000     0.971300000000     0.754970000000    -0.450075   
O529     O      0.772660000000     0.002050000000     0.549540000000    -0.44942    
O530     O      0.773890000000     0.498200000000     0.957570000000    -0.445285   
O531     O      0.773610000000     0.545620000000     0.501470000000    -0.446458   
O532     O      0.773040000000     0.954850000000     0.005590000000    -0.441712   
O533     O      0.721120000000     0.955440000000     0.496110000000    -0.437973   
O534     O      0.721440000000     0.545650000000     0.009380000000    -0.443611   
O535     O      0.721890000000     0.006990000000     0.957010000000    -0.437726   
O536     O      0.720550000000     0.494190000000     0.548510000000    -0.441253   
O537     O      0.985330000000     0.712670000000     0.544540000000    -0.443366   
O538     O      0.487700000000     0.711830000000     0.952380000000    -0.443674   
O539     O      0.531910000000     0.712840000000     0.499670000000    -0.446551   
O540     O      0.941050000000     0.711560000000     0.997370000000    -0.440637   
O541     O      0.941120000000     0.763870000000     0.505530000000    -0.421197   
O542     O      0.530640000000     0.764900000000     0.990360000000    -0.429228   
O543     O      0.978700000000     0.763890000000     0.952480000000    -0.424033   
O544     O      0.493250000000     0.765000000000     0.543190000000    -0.440705   
O545     O      0.735150000000     0.702920000000     0.525090000000    -0.44828    
O546     O      0.737110000000     0.793640000000     0.530760000000    -0.43593    
O547     O      0.690740000000     0.748250000000     0.527950000000    -0.447743   
O548     O      0.781610000000     0.748380000000     0.527770000000    -0.435524   
O549     O      0.781450000000     0.750890000000     0.974270000000    -0.437782   
O550     O      0.690730000000     0.752230000000     0.974540000000    -0.446994   
O551     O      0.735630000000     0.796940000000     0.977290000000    -0.446629   
O552     O      0.736550000000     0.706100000000     0.971600000000    -0.435675   
O553     O      0.902360000000     0.795790000000     0.546200000000    -0.0810139  
O554     O      0.884690000000     0.768370000000     0.585870000000    -0.0859092  
O555     O      0.571530000000     0.802850000000     0.959130000000    -0.0928979  
O556     O      0.591190000000     0.780390000000     0.917320000000    -0.111783   
O557     O      0.802040000000     0.831160000000     0.026130000000    -0.105028   
O558     O      0.793210000000     0.855210000000     0.570860000000    -0.0994156  
O559     O      0.802090000000     0.669850000000     0.979250000000    -0.111741   
O560     O      0.795890000000     0.644140000000     0.935020000000    -0.105452   
O561     O      0.692080000000     0.026180000000     0.831210000000    -0.109492   
O562     O      0.695950000000     0.571350000000     0.855060000000    -0.102723   
O563     O      0.691330000000     0.970060000000     0.678260000000    -0.106769   
O564     O      0.713230000000     0.923650000000     0.679220000000    -0.0879827  
O565     O      0.441380000000     0.796770000000     0.917930000000    -0.0874776  
O566     O      0.918370000000     0.750910000000     0.920400000000    -0.104599   
O567     O      0.946910000000     0.777040000000     0.638990000000    -0.0809544  
O568     O      0.921440000000     0.742460000000     0.666790000000    -0.0841244  
O569     O      0.582680000000     0.939980000000     0.790670000000    -0.104261   
O570     O      0.585470000000     0.966220000000     0.835350000000    -0.0848776  
O571     O      0.876970000000     0.558250000000     0.773620000000    -0.0975648  
O572     O      0.869390000000     0.579040000000     0.727070000000    -0.104481   
O573     O      0.935280000000     0.922330000000     0.754090000000    -0.110973   
O574     O      0.930960000000     0.897800000000     0.799280000000    -0.107983   
O575     O      0.553370000000     0.591190000000     0.713800000000    -0.100098   
O576     O      0.590690000000     0.610570000000     0.742810000000    -0.111189   


