data_structure

_audit_creation_method RASPA-1.0
_audit_creation_date 2023-6-5
_audit_author_name 'Poobodin Mano'

_cell_length_a    34.0146
_cell_length_b    34.4108
_cell_length_c    40.4232
_cell_angle_alpha 89.9789
_cell_angle_beta  90.021
_cell_angle_gamma 119.98
_cell_volume      40983.5

_symmetry_cell_setting          triclinic
_symmetry_space_group_name_Hall 'P 1'
_symmetry_space_group_name_H-M  'P 1'
_symmetry_Int_Tables_number     1

_symmetry_equiv_pos_as_xyz 'x,y,z'

loop_
_atom_site_label
_atom_site_type_symbol
_atom_site_fract_x
_atom_site_fract_y
_atom_site_fract_z
_atom_site_charge
Br1      Br     0.628850000000     0.942560000000     0.349240000000    -0.175101   
Br2      Br     0.874930000000     0.343650000000     0.211570000000    -0.223225   
Br3      Br     0.201980000000     0.748000000000     0.224980000000    -0.230143   
Br4      Br     0.479460000000     0.602040000000     0.403490000000    -0.212871   
Br5      Br     0.361300000000     0.032370000000     0.057820000000    -0.238145   
Br6      Br     0.358550000000     0.381850000000     0.989200000000    -0.203317   
Br7      Br     0.671580000000     0.917050000000     0.311330000000    -0.299371   
Br8      Br     0.598600000000     0.852800000000     0.077720000000    -0.204333   
Br9      Br     0.819600000000     0.780100000000     0.179820000000    -0.222883   
Br10     Br     0.543390000000     0.887190000000     0.253570000000    -0.199145   
Br11     Br     0.902600000000     0.472920000000     0.415760000000    -0.205223   
Br12     Br     0.094750000000     0.481340000000     0.093240000000    -0.204861   
Br13     Br     0.848680000000     0.462050000000     0.510680000000    -0.20159    
Br14     Br     0.343840000000     0.246310000000     0.390320000000    -0.348404   
Br15     Br     0.262820000000     0.177490000000     0.214490000000    -0.233698   
Br16     Br     0.513370000000     0.196620000000     0.325660000000    -0.214575   
Br17     Br     0.976440000000     0.319770000000     0.491780000000    -0.228681   
Br18     Br     0.316130000000     0.328510000000     0.407220000000    -0.203929   
Br19     Br     0.396450000000     0.480120000000     0.308540000000    -0.215099   
Br20     Br     0.505390000000     0.603810000000     0.132840000000    -0.213331   
Br21     Br     0.745190000000     0.118200000000     0.403670000000    -0.233775   
Br22     Br     0.759460000000     0.182480000000     0.132530000000    -0.218877   
Br23     Br     0.046910000000     0.295320000000     0.286040000000    -0.243663   
Br24     Br     0.267600000000     0.406370000000     0.062000000000    -0.167119   
Br25     Br     0.044350000000     0.354230000000     0.128080000000    -0.203089   
Br26     Br     0.312710000000     0.439670000000     0.110080000000    -0.167469   
Br27     Br     0.569770000000     0.119960000000     0.323080000000    -0.272202   
Br28     Br     0.600580000000     0.011390000000     0.065040000000    -0.251823   
Br29     Br     0.625020000000     0.977690000000     0.021760000000    -0.18257    
Br30     Br     0.184830000000     0.953740000000     0.245750000000    -0.223963   
Br31     Br     0.055180000000     0.811910000000     0.496340000000    -0.232704   
Br32     Br     0.355150000000     0.896400000000     0.405060000000    -0.22319    
Br33     Br     0.712660000000     0.567830000000     0.425900000000    -0.229069   
Br34     Br     0.928340000000     0.748550000000     0.252700000000    -0.223583   
Br35     Br     0.688130000000     0.686200000000     0.316580000000    -0.234481   
Br36     Br     0.036420000000     0.676900000000     0.397990000000    -0.227967   
Br37     Br     0.628850000000     0.942560000000     0.849240000000    -0.175101   
Br38     Br     0.874930000000     0.343650000000     0.711570000000    -0.223224   
Br39     Br     0.201980000000     0.748000000000     0.724980000000    -0.230144   
Br40     Br     0.479460000000     0.602040000000     0.903490000000    -0.212869   
Br41     Br     0.361300000000     0.032370000000     0.557820000000    -0.238167   
Br42     Br     0.358550000000     0.381840000000     0.489200000000    -0.203286   
Br43     Br     0.671580000000     0.917050000000     0.811330000000    -0.299368   
Br44     Br     0.598600000000     0.852800000000     0.577710000000    -0.204362   
Br45     Br     0.819600000000     0.780100000000     0.679820000000    -0.222888   
Br46     Br     0.543390000000     0.887190000000     0.753580000000    -0.199129   
Br47     Br     0.902600000000     0.472910000000     0.915760000000    -0.20523    
Br48     Br     0.094750000000     0.481340000000     0.593240000000    -0.204873   
Br49     Br     0.848690000000     0.462050000000     0.010680000000    -0.201562   
Br50     Br     0.343840000000     0.246310000000     0.890320000000    -0.34842    
Br51     Br     0.262820000000     0.177490000000     0.714490000000    -0.233698   
Br52     Br     0.513370000000     0.196620000000     0.825660000000    -0.214575   
Br53     Br     0.976440000000     0.319770000000     0.991780000000    -0.228707   
Br54     Br     0.316130000000     0.328510000000     0.907220000000    -0.20394    
Br55     Br     0.396450000000     0.480120000000     0.808540000000    -0.2151     
Br56     Br     0.505390000000     0.603810000000     0.632840000000    -0.213327   
Br57     Br     0.745190000000     0.118200000000     0.903670000000    -0.233776   
Br58     Br     0.759460000000     0.182470000000     0.632530000000    -0.218893   
Br59     Br     0.046910000000     0.295320000000     0.786040000000    -0.243663   
Br60     Br     0.267600000000     0.406370000000     0.562000000000    -0.167133   
Br61     Br     0.044350000000     0.354230000000     0.628080000000    -0.203092   
Br62     Br     0.312710000000     0.439660000000     0.610080000000    -0.16749    
Br63     Br     0.569770000000     0.119960000000     0.823080000000    -0.272199   
Br64     Br     0.600580000000     0.011390000000     0.565040000000    -0.251829   
Br65     Br     0.625020000000     0.977690000000     0.521760000000    -0.182588   
Br66     Br     0.184830000000     0.953740000000     0.745750000000    -0.223964   
Br67     Br     0.055180000000     0.811910000000     0.996340000000    -0.232762   
Br68     Br     0.355150000000     0.896400000000     0.905060000000    -0.223189   
Br69     Br     0.712660000000     0.567830000000     0.925900000000    -0.229079   
Br70     Br     0.928340000000     0.748550000000     0.752700000000    -0.223594   
Br71     Br     0.688130000000     0.686200000000     0.816580000000    -0.234472   
Br72     Br     0.036420000000     0.676900000000     0.897990000000    -0.227979   
C1       C      0.842720000000     0.658800000000     0.277220000000     0.438287   
C2       C      0.792590000000     0.659540000000     0.396480000000     0.441266   
C3       C      0.734780000000     0.623130000000     0.316910000000     0.441079   
C4       C      0.899110000000     0.695200000000     0.356910000000     0.430963   
C5       C      0.141460000000     0.810300000000     0.467450000000     0.437849   
C6       C      0.186700000000     0.854800000000     0.346470000000     0.426164   
C7       C      0.245960000000     0.878920000000     0.427100000000     0.436746   
C8       C      0.081520000000     0.784270000000     0.388630000000     0.442916   
C9       C      0.509230000000     0.011960000000     0.425610000000     0.438867   
C10      C      0.503760000000     0.997050000000     0.050700000000     0.447547   
C11      C      0.418160000000     0.964300000000     0.483230000000     0.436264   
C12      C      0.589970000000     0.043840000000     0.994530000000     0.451918   
C13      C      0.154510000000     0.326220000000     0.208900000000     0.434862   
C14      C      0.184690000000     0.316110000000     0.087010000000     0.446563   
C15      C      0.255200000000     0.354750000000     0.157350000000     0.441526   
C16      C      0.085190000000     0.286000000000     0.135980000000     0.441963   
C17      C      0.869180000000     0.174480000000     0.988160000000     0.430784   
C18      C      0.839360000000     0.166270000000     0.112030000000     0.443533   
C19      C      0.770120000000     0.129420000000     0.037760000000     0.431685   
C20      C      0.939740000000     0.213080000000     0.062520000000     0.431239   
C21      C      0.525870000000     0.526080000000     0.160460000000     0.433121   
C22      C      0.484420000000     0.480760000000     0.281700000000     0.438771   
C23      C      0.422380000000     0.454570000000     0.204840000000     0.432286   
C24      C      0.588340000000     0.552030000000     0.238900000000     0.42767    
C25      C      0.147310000000     0.330570000000     0.342620000000     0.438755   
C26      C      0.198150000000     0.314310000000     0.457610000000     0.439198   
C27      C      0.219530000000     0.292000000000     0.374900000000     0.442168   
C28      C      0.125280000000     0.354540000000     0.426150000000     0.429672   
C29      C      0.381920000000     0.188500000000     0.360870000000     0.450378   
C30      C      0.359770000000     0.198850000000     0.237380000000     0.444381   
C31      C      0.318250000000     0.222950000000     0.313350000000     0.438544   
C32      C      0.423320000000     0.162480000000     0.284930000000     0.444583   
C33      C      0.999900000000     0.460080000000     0.062110000000     0.444792   
C34      C      0.999180000000     0.490550000000     0.438650000000     0.441157   
C35      C      0.960410000000     0.520090000000     0.010850000000     0.442131   
C36      C      0.039850000000     0.429390000000     0.489940000000     0.443902   
C37      C      0.689780000000     0.856500000000     0.098430000000     0.444384   
C38      C      0.705340000000     0.838280000000     0.221710000000     0.434997   
C39      C      0.731920000000     0.797880000000     0.146710000000     0.43874    
C40      C      0.662940000000     0.896040000000     0.173010000000     0.435253   
C41      C      0.866620000000     0.651650000000     0.145640000000     0.428777   
C42      C      0.827990000000     0.654900000000     0.023580000000     0.425203   
C43      C      0.808610000000     0.697120000000     0.100640000000     0.433349   
C44      C      0.887090000000     0.609080000000     0.069200000000     0.43026    
C45      C      0.560470000000     0.029160000000     0.299900000000     0.45009    
C46      C      0.544470000000     0.037860000000     0.175930000000     0.433869   
C47      C      0.508360000000     0.070740000000     0.250410000000     0.434698   
C48      C      0.598110000000     0.991430000000     0.229120000000     0.444323   
C49      C      0.331300000000     0.142730000000     0.981750000000     0.431367   
C50      C      0.345170000000     0.186530000000     0.103250000000     0.431143   
C51      C      0.376970000000     0.245110000000     0.025520000000     0.428535   
C52      C      0.298410000000     0.079870000000     0.059440000000     0.438592   
C53      C      0.538550000000     0.537700000000     0.027540000000     0.42743    
C54      C      0.479340000000     0.469700000000     0.413310000000     0.433727   
C55      C      0.466320000000     0.425840000000     0.995650000000     0.442701   
C56      C      0.550330000000     0.580440000000     0.441680000000     0.439809   
C57      C      0.208470000000     0.881000000000     0.216030000000     0.439605   
C58      C      0.148730000000     0.816300000000     0.100770000000     0.425458   
C59      C      0.135890000000     0.771900000000     0.184680000000     0.438007   
C60      C      0.222440000000     0.927980000000     0.132720000000     0.429404   
C61      C      0.003410000000     0.508390000000     0.185440000000     0.433466   
C62      C      0.001850000000     0.531500000000     0.310030000000     0.432343   
C63      C      0.044030000000     0.605080000000     0.239650000000     0.431677   
C64      C      0.960560000000     0.435490000000     0.256530000000     0.439215   
C65      C      0.812550000000     0.148730000000     0.244160000000     0.43111    
C66      C      0.833210000000     0.190150000000     0.366390000000     0.441664   
C67      C      0.866080000000     0.252580000000     0.288870000000     0.431322   
C68      C      0.781740000000     0.087970000000     0.322840000000     0.431229   
C69      C      0.675430000000     0.859280000000     0.464450000000     0.433688   
C70      C      0.652520000000     0.824950000000     0.341220000000     0.447934   
C71      C      0.627610000000     0.756560000000     0.416760000000     0.431474   
C72      C      0.699830000000     0.922250000000     0.387770000000     0.448201   
C73      C      0.783900000000     0.038470000000     0.364590000000    -0.0139183  
C74      C      0.710710000000     0.018310000000     0.334250000000    -0.0418557  
C75      C      0.767380000000     0.989110000000     0.369550000000    -0.0070518  
C76      C      0.692420000000     0.968830000000     0.344520000000     0.104156   
C77      C      0.936700000000     0.317550000000     0.268740000000    -0.0149845  
C78      C      0.866360000000     0.323640000000     0.280930000000    -0.0401175  
C79      C      0.962780000000     0.368300000000     0.274310000000     0.000362577
C80      C      0.888220000000     0.363720000000     0.257300000000     0.115826   
C81      C      0.043250000000     0.676230000000     0.230880000000    -0.0109206  
C82      C      0.115730000000     0.677740000000     0.241610000000    -0.0419693  
C83      C      0.063620000000     0.706460000000     0.200630000000    -0.0103668  
C84      C      0.138580000000     0.708060000000     0.211700000000     0.112879   
C85      C      0.636910000000     0.692550000000     0.434810000000    -0.011083   
C86      C      0.558680000000     0.683120000000     0.426280000000    -0.0461928  
C87      C      0.619820000000     0.645770000000     0.419620000000    -0.0129506  
C88      C      0.545390000000     0.639550000000     0.408090000000     0.116525   
C89      C      0.222840000000     0.996670000000     0.113600000000    -0.013405   
C90      C      0.292980000000     0.990170000000     0.107990000000    -0.0454837  
C91      C      0.228240000000     0.012340000000     0.077620000000    -0.00966206 
C92      C      0.298250000000     0.007170000000     0.072220000000     0.115297   
C93      C      0.446720000000     0.313560000000     0.007680000000    -0.0124857  
C94      C      0.370950000000     0.308870000000     0.003260000000    -0.0456605  
C95      C      0.467270000000     0.361260000000     0.020750000000    -0.00787531 
C96      C      0.392440000000     0.358560000000     0.013340000000     0.114453   
C97      C      0.687250000000     0.793200000000     0.272750000000    -0.0106128  
C98      C      0.714000000000     0.875720000000     0.274430000000    -0.0495129  
C99      C      0.643240000000     0.783200000000     0.290360000000    -0.00595432 
C100     C      0.667660000000     0.865140000000     0.288070000000     0.12562    
C101     C      0.727310000000     0.893180000000     0.012180000000    -0.0107356  
C102     C      0.645780000000     0.870420000000     0.017300000000    -0.0455346  
C103     C      0.725340000000     0.869360000000     0.044420000000    -0.00881377 
C104     C      0.641200000000     0.845100000000     0.049540000000     0.114991   
C105     C      0.742480000000     0.697070000000     0.125200000000    -0.0108928  
C106     C      0.813510000000     0.770270000000     0.109320000000    -0.0391501  
C107     C      0.719830000000     0.725920000000     0.125470000000    -0.00285721 
C108     C      0.799670000000     0.790730000000     0.137350000000     0.11524    
C109     C      0.670360000000     0.971410000000     0.180250000000    -0.01395    
C110     C      0.597590000000     0.900800000000     0.194710000000    -0.0468178  
C111     C      0.668760000000     0.991600000000     0.213960000000    -0.0102512  
C112     C      0.600670000000     0.919650000000     0.229270000000     0.117332   
C113     C      0.043510000000     0.556240000000     0.363010000000    -0.0125558  
C114     C      0.959450000000     0.521000000000     0.362190000000    -0.0430362  
C115     C      0.040800000000     0.521080000000     0.387140000000    -0.00609038 
C116     C      0.954710000000     0.485520000000     0.387720000000     0.111486   
C117     C      0.961360000000     0.480730000000     0.132660000000    -0.0106796  
C118     C      0.046180000000     0.511700000000     0.134910000000    -0.0448001  
C119     C      0.956240000000     0.439780000000     0.113540000000    -0.0128907  
C120     C      0.039550000000     0.470260000000     0.116310000000     0.117627   
C121     C      0.957070000000     0.606990000000     0.054520000000    -0.0115998  
C122     C      0.881180000000     0.536240000000     0.055410000000    -0.0447054  
C123     C      0.966200000000     0.593900000000     0.020280000000    -0.0122624  
C124     C      0.889600000000     0.525720000000     0.020260000000     0.114951   
C125     C      0.356580000000     0.121650000000     0.430640000000    -0.0117251  
C126     C      0.316960000000     0.166540000000     0.428430000000    -0.0515532  
C127     C      0.396840000000     0.158900000000     0.411490000000    -0.00632915 
C128     C      0.359840000000     0.206500000000     0.414180000000     0.133997   
C129     C      0.394850000000     0.230410000000     0.149730000000    -0.0103382  
C130     C      0.311030000000     0.196530000000     0.154140000000    -0.0419829  
C131     C      0.396950000000     0.213670000000     0.184250000000    -0.00967241 
C132     C      0.310570000000     0.176460000000     0.188040000000     0.114304   
C133     C      0.437990000000     0.073720000000     0.251600000000    -0.00962604 
C134     C      0.500090000000     0.118830000000     0.291530000000    -0.0619089  
C135     C      0.431890000000     0.114010000000     0.245260000000    -0.00854868 
C136     C      0.496430000000     0.160880000000     0.285050000000     0.122722   
C137     C      0.122090000000     0.421030000000     0.445450000000    -0.0121102  
C138     C      0.051980000000     0.344220000000     0.447810000000    -0.0456756  
C139     C      0.111770000000     0.430140000000     0.480340000000    -0.00993481 
C140     C      0.041230000000     0.356330000000     0.482050000000     0.115163   
C141     C      0.243260000000     0.211770000000     0.328650000000    -0.0127823  
C142     C      0.312800000000     0.267760000000     0.357070000000    -0.117627   
C143     C      0.222670000000     0.242120000000     0.333680000000    -0.00803143 
C144     C      0.294810000000     0.299810000000     0.363880000000     0.132587   
C145     C      0.481900000000     0.428540000000     0.363680000000    -0.0103867  
C146     C      0.428310000000     0.457230000000     0.365720000000    -0.041442   
C147     C      0.502850000000     0.453660000000     0.331530000000    -0.00879422 
C148     C      0.447720000000     0.484480000000     0.333750000000     0.113014   
C149     C      0.581830000000     0.541660000000     0.078070000000    -0.011785   
C150     C      0.537620000000     0.580890000000     0.076370000000    -0.0397363  
C151     C      0.555560000000     0.514730000000     0.108520000000    -0.00940897 
C152     C      0.513040000000     0.558500000000     0.108820000000     0.11003    
C153     C      0.902010000000     0.210130000000     0.434460000000    -0.0111927  
C154     C      0.826800000000     0.138490000000     0.438370000000    -0.0421272  
C155     C      0.879310000000     0.231510000000     0.414510000000    -0.00598127 
C156     C      0.803610000000     0.162420000000     0.422650000000     0.110824   
C157     C      0.832900000000     0.120680000000     0.194290000000    -0.0099713  
C158     C      0.776690000000     0.146880000000     0.190320000000    -0.0407289  
C159     C      0.860750000000     0.152380000000     0.166470000000    -0.00894608 
C160     C      0.803550000000     0.179040000000     0.161860000000     0.112068   
C161     C      0.150660000000     0.370630000000     0.255260000000    -0.0124923  
C162     C      0.121490000000     0.286560000000     0.260740000000    -0.0387762  
C163     C      0.164410000000     0.374580000000     0.291680000000     0.000111404
C164     C      0.101910000000     0.292280000000     0.293250000000     0.116501   
C165     C      0.191560000000     0.267420000000     0.006310000000    -0.00911793 
C166     C      0.245510000000     0.349020000000     0.006920000000    -0.0428535  
C167     C      0.167420000000     0.271240000000     0.036950000000    -0.00981503 
C168     C      0.221030000000     0.356850000000     0.035410000000     0.108629   
C169     C      0.006180000000     0.209990000000     0.083940000000    -0.0112138  
C170     C      0.008720000000     0.283760000000     0.078960000000    -0.0447593  
C171     C      0.014020000000     0.217530000000     0.121310000000    -0.00882549 
C172     C      0.016850000000     0.290780000000     0.116380000000     0.116595   
C173     C      0.351620000000     0.380750000000     0.205400000000    -0.0144348  
C174     C      0.356120000000     0.448130000000     0.175340000000    -0.0463127  
C175     C      0.321890000000     0.350150000000     0.177010000000    -0.00897576 
C176     C      0.334400000000     0.417140000000     0.145860000000     0.113291   
C177     C      0.503280000000     0.976980000000     0.371220000000    -0.0075858  
C178     C      0.524530000000     0.057760000000     0.374700000000    -0.0416997  
C179     C      0.546250000000     0.989410000000     0.352140000000    -0.0093685  
C180     C      0.565410000000     0.071010000000     0.351430000000     0.114835   
C181     C      0.495010000000     0.033210000000     0.130070000000    -0.00827307 
C182     C      0.574130000000     0.047270000000     0.119510000000    -0.043722   
C183     C      0.475500000000     0.993180000000     0.106650000000    -0.00692421 
C184     C      0.554590000000     0.005220000000     0.097610000000     0.115199   
C185     C      0.710760000000     0.129330000000     0.003770000000    -0.0163704  
C186     C      0.698680000000     0.058050000000     0.031520000000    -0.0569456  
C187     C      0.660210000000     0.112610000000     0.006340000000    -0.00455056 
C188     C      0.646560000000     0.040130000000     0.031230000000     0.164761   
C189     C      0.214870000000     0.843090000000     0.293110000000    -0.0122841  
C190     C      0.177870000000     0.891460000000     0.296660000000    -0.0469046  
C191     C      0.246370000000     0.874610000000     0.265990000000    -0.0101351  
C192     C      0.209610000000     0.920850000000     0.268970000000     0.11681    
C193     C      0.146660000000     0.769450000000     0.053280000000    -0.0113109  
C194     C      0.095050000000     0.800520000000     0.054280000000    -0.0427916  
C195     C      0.161340000000     0.785560000000     0.017730000000    -0.00917136 
C196     C      0.109560000000     0.820480000000     0.019440000000     0.114291   
C197     C      0.352410000000     0.971070000000     0.466720000000    -0.0130872  
C198     C      0.344770000000     0.894480000000     0.475450000000    -0.0397458  
C199     C      0.301020000000     0.943310000000     0.460270000000    -0.00214719 
C200     C      0.316290000000     0.880350000000     0.443890000000     0.116816   
C201     C      0.842740000000     0.697080000000     0.471030000000    -0.0139297  
C202     C      0.785000000000     0.613850000000     0.473660000000    -0.0480292  
C203     C      0.810650000000     0.703440000000     0.447670000000    -0.00976742 
C204     C      0.754800000000     0.622190000000     0.450000000000     0.118293   
C205     C      0.855360000000     0.610200000000     0.198230000000    -0.00975116 
C206     C      0.907060000000     0.692570000000     0.196490000000    -0.0394694  
C207     C      0.829180000000     0.614490000000     0.227280000000    -0.00989475 
C208     C      0.882230000000     0.699570000000     0.225810000000     0.110892   
C209     C      0.659840000000     0.555410000000     0.256010000000    -0.0127068  
C210     C      0.651050000000     0.622970000000     0.262740000000    -0.0464706  
C211     C      0.669510000000     0.556210000000     0.293010000000    -0.00956163 
C212     C      0.663730000000     0.625200000000     0.299550000000     0.11667    
C213     C      0.967360000000     0.763310000000     0.376620000000    -0.0109593  
C214     C      0.962180000000     0.688370000000     0.381730000000    -0.0431983  
C215     C      0.015460000000     0.783370000000     0.363780000000    -0.00768673 
C216     C      0.013070000000     0.709860000000     0.372820000000     0.115319   
C217     C      0.842720000000     0.658800000000     0.777220000000     0.438288   
C218     C      0.792600000000     0.659550000000     0.896480000000     0.441489   
C219     C      0.734790000000     0.623130000000     0.816910000000     0.441103   
C220     C      0.899110000000     0.695200000000     0.856910000000     0.430644   
C221     C      0.141460000000     0.810290000000     0.967450000000     0.438004   
C222     C      0.186700000000     0.854800000000     0.846470000000     0.426169   
C223     C      0.245960000000     0.878920000000     0.927100000000     0.436823   
C224     C      0.081520000000     0.784270000000     0.888630000000     0.442919   
C225     C      0.509230000000     0.011960000000     0.925610000000     0.438819   
C226     C      0.503760000000     0.997040000000     0.550700000000     0.447361   
C227     C      0.418160000000     0.964300000000     0.983230000000     0.436234   
C228     C      0.589970000000     0.043840000000     0.494530000000     0.451964   
C229     C      0.154510000000     0.326220000000     0.708900000000     0.434863   
C230     C      0.184690000000     0.316110000000     0.587010000000     0.446564   
C231     C      0.255200000000     0.354750000000     0.657350000000     0.441532   
C232     C      0.085190000000     0.286000000000     0.635980000000     0.441963   
C233     C      0.869180000000     0.174480000000     0.488160000000     0.430884   
C234     C      0.839360000000     0.166270000000     0.612030000000     0.443537   
C235     C      0.770120000000     0.129420000000     0.537760000000     0.431681   
C236     C      0.939740000000     0.213080000000     0.562520000000     0.431237   
C237     C      0.525870000000     0.526080000000     0.660460000000     0.433038   
C238     C      0.484420000000     0.480760000000     0.781700000000     0.438764   
C239     C      0.422380000000     0.454570000000     0.704840000000     0.432077   
C240     C      0.588340000000     0.552030000000     0.738900000000     0.427683   
C241     C      0.147310000000     0.330570000000     0.842620000000     0.43876    
C242     C      0.198150000000     0.314310000000     0.957610000000     0.439103   
C243     C      0.219530000000     0.292000000000     0.874900000000     0.442177   
C244     C      0.125280000000     0.354540000000     0.926150000000     0.429768   
C245     C      0.381920000000     0.188500000000     0.860880000000     0.450382   
C246     C      0.359770000000     0.198850000000     0.737380000000     0.444381   
C247     C      0.318250000000     0.222950000000     0.813350000000     0.438544   
C248     C      0.423320000000     0.162480000000     0.784930000000     0.444586   
C249     C      0.999900000000     0.460080000000     0.562110000000     0.44479    
C250     C      0.999180000000     0.490540000000     0.938650000000     0.441165   
C251     C      0.960410000000     0.520090000000     0.510850000000     0.442128   
C252     C      0.039860000000     0.429390000000     0.989940000000     0.44392    
C253     C      0.689780000000     0.856500000000     0.598430000000     0.444377   
C254     C      0.705340000000     0.838280000000     0.721710000000     0.434979   
C255     C      0.731920000000     0.797880000000     0.646710000000     0.438774   
C256     C      0.662940000000     0.896040000000     0.673010000000     0.435243   
C257     C      0.866620000000     0.651650000000     0.645640000000     0.428839   
C258     C      0.827990000000     0.654900000000     0.523580000000     0.425151   
C259     C      0.808610000000     0.697120000000     0.600640000000     0.43335    
C260     C      0.887090000000     0.609080000000     0.569200000000     0.430208   
C261     C      0.560470000000     0.029160000000     0.799900000000     0.450089   
C262     C      0.544470000000     0.037860000000     0.675930000000     0.433752   
C263     C      0.508360000000     0.070740000000     0.750410000000     0.434698   
C264     C      0.598110000000     0.991430000000     0.729120000000     0.444323   
C265     C      0.331300000000     0.142730000000     0.481760000000     0.431443   
C266     C      0.345170000000     0.186530000000     0.603250000000     0.431141   
C267     C      0.376970000000     0.245110000000     0.525520000000     0.428525   
C268     C      0.298410000000     0.079870000000     0.559440000000     0.438584   
C269     C      0.538550000000     0.537700000000     0.527540000000     0.427434   
C270     C      0.479340000000     0.469700000000     0.913310000000     0.43359    
C271     C      0.466320000000     0.425850000000     0.495650000000     0.442799   
C272     C      0.550330000000     0.580440000000     0.941680000000     0.439806   
C273     C      0.208470000000     0.881000000000     0.716030000000     0.439598   
C274     C      0.148730000000     0.816300000000     0.600770000000     0.425549   
C275     C      0.135890000000     0.771890000000     0.684680000000     0.437949   
C276     C      0.222440000000     0.927980000000     0.632730000000     0.429441   
C277     C      0.003410000000     0.508390000000     0.685440000000     0.43346    
C278     C      0.001850000000     0.531500000000     0.810030000000     0.432339   
C279     C      0.044030000000     0.605080000000     0.739650000000     0.431618   
C280     C      0.960560000000     0.435490000000     0.756530000000     0.439208   
C281     C      0.812550000000     0.148730000000     0.744160000000     0.431107   
C282     C      0.833210000000     0.190150000000     0.866390000000     0.441451   
C283     C      0.866080000000     0.252580000000     0.788870000000     0.431319   
C284     C      0.781740000000     0.087970000000     0.822840000000     0.431227   
C285     C      0.675430000000     0.859280000000     0.964450000000     0.433746   
C286     C      0.652520000000     0.824950000000     0.841220000000     0.447952   
C287     C      0.627610000000     0.756560000000     0.916760000000     0.431511   
C288     C      0.699830000000     0.922250000000     0.887770000000     0.448187   
C289     C      0.783900000000     0.038470000000     0.864590000000    -0.0139043  
C290     C      0.710710000000     0.018310000000     0.834260000000    -0.0418029  
C291     C      0.767380000000     0.989110000000     0.869550000000    -0.00708425 
C292     C      0.692420000000     0.968820000000     0.844520000000     0.104157   
C293     C      0.936700000000     0.317550000000     0.768740000000    -0.0149845  
C294     C      0.866360000000     0.323640000000     0.780930000000    -0.040117   
C295     C      0.962780000000     0.368300000000     0.774310000000     0.000362543
C296     C      0.888220000000     0.363720000000     0.757300000000     0.115825   
C297     C      0.043250000000     0.676230000000     0.730880000000    -0.010931   
C298     C      0.115730000000     0.677740000000     0.741610000000    -0.0419678  
C299     C      0.063620000000     0.706460000000     0.700630000000    -0.0103517  
C300     C      0.138580000000     0.708060000000     0.711700000000     0.112876   
C301     C      0.636910000000     0.692550000000     0.934810000000    -0.0110852  
C302     C      0.558680000000     0.683130000000     0.926280000000    -0.0462068  
C303     C      0.619820000000     0.645770000000     0.919620000000    -0.0129411  
C304     C      0.545390000000     0.639550000000     0.908090000000     0.116523   
C305     C      0.222850000000     0.996670000000     0.613600000000    -0.0133178  
C306     C      0.292980000000     0.990170000000     0.607990000000    -0.0454854  
C307     C      0.228240000000     0.012340000000     0.577620000000    -0.00969819 
C308     C      0.298250000000     0.007170000000     0.572220000000     0.115297   
C309     C      0.446720000000     0.313560000000     0.507680000000    -0.0125404  
C310     C      0.370950000000     0.308870000000     0.503260000000    -0.045709   
C311     C      0.467270000000     0.361260000000     0.520750000000    -0.00786351 
C312     C      0.392440000000     0.358560000000     0.513340000000     0.11445    
C313     C      0.687250000000     0.793200000000     0.772750000000    -0.010602   
C314     C      0.714000000000     0.875720000000     0.774430000000    -0.0495052  
C315     C      0.643240000000     0.783200000000     0.790350000000    -0.00598513 
C316     C      0.667660000000     0.865140000000     0.788070000000     0.125616   
C317     C      0.727310000000     0.893180000000     0.512180000000    -0.0108153  
C318     C      0.645770000000     0.870410000000     0.517300000000    -0.0456331  
C319     C      0.725340000000     0.869360000000     0.544420000000    -0.00878481 
C320     C      0.641200000000     0.845100000000     0.549540000000     0.115052   
C321     C      0.742480000000     0.697070000000     0.625200000000    -0.0108919  
C322     C      0.813510000000     0.770270000000     0.609320000000    -0.0391498  
C323     C      0.719830000000     0.725920000000     0.625470000000    -0.00285615 
C324     C      0.799670000000     0.790730000000     0.637350000000     0.115239   
C325     C      0.670360000000     0.971410000000     0.680250000000    -0.0139564  
C326     C      0.597590000000     0.900800000000     0.694710000000    -0.0468127  
C327     C      0.668760000000     0.991600000000     0.713970000000    -0.0102444  
C328     C      0.600670000000     0.919650000000     0.729270000000     0.117309   
C329     C      0.043510000000     0.556240000000     0.863010000000    -0.0125591  
C330     C      0.959440000000     0.521000000000     0.862180000000    -0.0430524  
C331     C      0.040800000000     0.521080000000     0.887140000000    -0.0060836  
C332     C      0.954710000000     0.485520000000     0.887720000000     0.111491   
C333     C      0.961360000000     0.480730000000     0.632660000000    -0.010624   
C334     C      0.046180000000     0.511700000000     0.634910000000    -0.0447976  
C335     C      0.956240000000     0.439770000000     0.613540000000    -0.0129464  
C336     C      0.039550000000     0.470260000000     0.616310000000     0.117626   
C337     C      0.957070000000     0.606990000000     0.554520000000    -0.0116128  
C338     C      0.881180000000     0.536240000000     0.555410000000    -0.0447083  
C339     C      0.966200000000     0.593900000000     0.520280000000    -0.0122306  
C340     C      0.889600000000     0.525720000000     0.520260000000     0.114951   
C341     C      0.356580000000     0.121650000000     0.930640000000    -0.0116991  
C342     C      0.316960000000     0.166540000000     0.928430000000    -0.0515469  
C343     C      0.396840000000     0.158900000000     0.911490000000    -0.00631959 
C344     C      0.359840000000     0.206500000000     0.914180000000     0.134007   
C345     C      0.394850000000     0.230410000000     0.649730000000    -0.0103285  
C346     C      0.311030000000     0.196530000000     0.654140000000    -0.0419823  
C347     C      0.396950000000     0.213670000000     0.684240000000    -0.0096875  
C348     C      0.310570000000     0.176460000000     0.688040000000     0.114304   
C349     C      0.437990000000     0.073720000000     0.751600000000    -0.00962377 
C350     C      0.500080000000     0.118830000000     0.791530000000    -0.0618776  
C351     C      0.431890000000     0.114010000000     0.745260000000    -0.0085491  
C352     C      0.496430000000     0.160880000000     0.785050000000     0.122721   
C353     C      0.122090000000     0.421030000000     0.945450000000    -0.0121075  
C354     C      0.051980000000     0.344220000000     0.947810000000    -0.0456541  
C355     C      0.111770000000     0.430140000000     0.980340000000    -0.00993921 
C356     C      0.041230000000     0.356330000000     0.982050000000     0.115103   
C357     C      0.243260000000     0.211770000000     0.828650000000    -0.0127972  
C358     C      0.312800000000     0.267760000000     0.857070000000    -0.117629   
C359     C      0.222670000000     0.242120000000     0.833680000000    -0.00798863 
C360     C      0.294810000000     0.299810000000     0.863880000000     0.13259    
C361     C      0.481890000000     0.428540000000     0.863680000000    -0.0102879  
C362     C      0.428310000000     0.457230000000     0.865720000000    -0.0414444  
C363     C      0.502850000000     0.453650000000     0.831530000000    -0.00888833 
C364     C      0.447720000000     0.484480000000     0.833750000000     0.113013   
C365     C      0.581830000000     0.541660000000     0.578070000000    -0.0117883  
C366     C      0.537620000000     0.580890000000     0.576370000000    -0.0397353  
C367     C      0.555560000000     0.514730000000     0.608520000000    -0.00939621 
C368     C      0.513040000000     0.558500000000     0.608820000000     0.110028   
C369     C      0.902010000000     0.210130000000     0.934460000000    -0.0112014  
C370     C      0.826800000000     0.138490000000     0.938370000000    -0.0421475  
C371     C      0.879310000000     0.231510000000     0.914510000000    -0.00596747 
C372     C      0.803610000000     0.162420000000     0.922650000000     0.110826   
C373     C      0.832900000000     0.120680000000     0.694290000000    -0.00997172 
C374     C      0.776690000000     0.146880000000     0.690320000000    -0.0407338  
C375     C      0.860750000000     0.152380000000     0.666470000000    -0.00894521 
C376     C      0.803550000000     0.179040000000     0.661860000000     0.112088   
C377     C      0.150660000000     0.370630000000     0.755260000000    -0.0124796  
C378     C      0.121490000000     0.286560000000     0.760740000000    -0.038775   
C379     C      0.164410000000     0.374580000000     0.791680000000     7.67985e-05
C380     C      0.101910000000     0.292280000000     0.793250000000     0.1165     
C381     C      0.191560000000     0.267420000000     0.506310000000    -0.00920579 
C382     C      0.245510000000     0.349020000000     0.506920000000    -0.0429425  
C383     C      0.167420000000     0.271240000000     0.536950000000    -0.00979103 
C384     C      0.221030000000     0.356850000000     0.535410000000     0.108649   
C385     C      0.006180000000     0.209990000000     0.583940000000    -0.011213   
C386     C      0.008720000000     0.283760000000     0.578960000000    -0.0447581  
C387     C      0.014020000000     0.217530000000     0.621310000000    -0.00882544 
C388     C      0.016850000000     0.290780000000     0.616380000000     0.116594   
C389     C      0.351620000000     0.380750000000     0.705400000000    -0.0144847  
C390     C      0.356120000000     0.448130000000     0.675330000000    -0.0463851  
C391     C      0.321890000000     0.350160000000     0.677010000000    -0.00887236 
C392     C      0.334400000000     0.417140000000     0.645860000000     0.113344   
C393     C      0.503280000000     0.976980000000     0.871220000000    -0.00755704 
C394     C      0.524530000000     0.057760000000     0.874700000000    -0.0417125  
C395     C      0.546250000000     0.989410000000     0.852140000000    -0.00938181 
C396     C      0.565410000000     0.071010000000     0.851430000000     0.114835   
C397     C      0.495010000000     0.033210000000     0.630070000000    -0.00828618 
C398     C      0.574130000000     0.047270000000     0.619510000000    -0.0437109  
C399     C      0.475500000000     0.993180000000     0.606650000000    -0.00692369 
C400     C      0.554590000000     0.005220000000     0.597610000000     0.115186   
C401     C      0.710760000000     0.129330000000     0.503770000000    -0.0164067  
C402     C      0.698680000000     0.058050000000     0.531520000000    -0.056946   
C403     C      0.660210000000     0.112610000000     0.506340000000    -0.00458938 
C404     C      0.646560000000     0.040130000000     0.531230000000     0.16476    
C405     C      0.214870000000     0.843090000000     0.793110000000    -0.0122832  
C406     C      0.177870000000     0.891460000000     0.796660000000    -0.0468999  
C407     C      0.246370000000     0.874610000000     0.765990000000    -0.0101348  
C408     C      0.209610000000     0.920850000000     0.768970000000     0.116804   
C409     C      0.146660000000     0.769450000000     0.553280000000    -0.0112611  
C410     C      0.095050000000     0.800520000000     0.554280000000    -0.0427758  
C411     C      0.161340000000     0.785550000000     0.517730000000    -0.00922668 
C412     C      0.109560000000     0.820480000000     0.519440000000     0.114254   
C413     C      0.352410000000     0.971070000000     0.966720000000    -0.013101   
C414     C      0.344770000000     0.894480000000     0.975450000000    -0.0397349  
C415     C      0.301020000000     0.943310000000     0.960270000000    -0.0021247  
C416     C      0.316290000000     0.880350000000     0.943890000000     0.116784   
C417     C      0.842740000000     0.697080000000     0.971030000000    -0.013935   
C418     C      0.785000000000     0.613850000000     0.973660000000    -0.0480701  
C419     C      0.810640000000     0.703440000000     0.947670000000    -0.00975574 
C420     C      0.754800000000     0.622190000000     0.950000000000     0.118317   
C421     C      0.855360000000     0.610200000000     0.698230000000    -0.00978507 
C422     C      0.907060000000     0.692570000000     0.696490000000    -0.0394367  
C423     C      0.829180000000     0.614480000000     0.727280000000    -0.00993328 
C424     C      0.882230000000     0.699570000000     0.725820000000     0.110934   
C425     C      0.659840000000     0.555410000000     0.756010000000    -0.0127458  
C426     C      0.651050000000     0.622970000000     0.762740000000    -0.0465074  
C427     C      0.669510000000     0.556220000000     0.793010000000    -0.00946497 
C428     C      0.663730000000     0.625200000000     0.799540000000     0.116662   
C429     C      0.967360000000     0.763310000000     0.876620000000    -0.0109595  
C430     C      0.962180000000     0.688370000000     0.881730000000    -0.0432097  
C431     C      0.015460000000     0.783370000000     0.863780000000    -0.0077296  
C432     C      0.013070000000     0.709860000000     0.872820000000     0.115325   
H1       H      0.695390000000     0.033140000000     0.350690000000     0.0853251  
H2       H      0.777460000000     0.051750000000     0.387760000000     0.0554088  
H3       H      0.783950000000     0.985460000000     0.392190000000     0.0450011  
H4       H      0.699630000000     0.020020000000     0.308580000000     0.0698716  
H5       H      0.699850000000     0.956830000000     0.324470000000     0.113599   
H6       H      0.821290000000     0.056130000000     0.360900000000     0.0481797  
H7       H      0.778540000000     0.976710000000     0.348110000000     0.0487397  
H8       H      0.829580000000     0.302980000000     0.275050000000     0.0721394  
H9       H      0.937180000000     0.310550000000     0.241950000000     0.0676533  
H10      H      0.996570000000     0.382510000000     0.262230000000     0.0563319  
H11      H      0.868750000000     0.336310000000     0.306580000000     0.0553804  
H12      H      0.871930000000     0.384330000000     0.261830000000     0.0366031  
H13      H      0.955040000000     0.302870000000     0.281760000000     0.0652389  
H14      H      0.968940000000     0.375080000000     0.301260000000     0.045511   
H15      H      0.121960000000     0.699250000000     0.263780000000     0.0649354  
H16      H      0.048300000000     0.697880000000     0.252740000000     0.0482817  
H17      H      0.049160000000     0.729110000000     0.199130000000     0.0517954  
H18      H      0.131830000000     0.657010000000     0.246360000000     0.071347   
H19      H      0.138590000000     0.686910000000     0.190910000000     0.0353283  
H20      H      0.006120000000     0.654250000000     0.227090000000     0.0490651  
H21      H      0.052080000000     0.684940000000     0.178170000000     0.04318    
H22      H      0.547930000000     0.675360000000     0.452570000000     0.0694324  
H23      H      0.635230000000     0.688910000000     0.462180000000     0.0439736  
H24      H      0.637690000000     0.629860000000     0.431620000000     0.0568168  
H25      H      0.540500000000     0.699170000000     0.414990000000     0.0760369  
H26      H      0.557490000000     0.649010000000     0.382160000000     0.0362163  
H27      H      0.673200000000     0.714340000000     0.428100000000     0.0533359  
H28      H      0.628740000000     0.650030000000     0.392880000000     0.0581994  
H29      H      0.314120000000     0.019340000000     0.124280000000     0.064318   
H30      H      0.239500000000     0.026820000000     0.129770000000     0.0507453  
H31      H      0.212390000000     0.033610000000     0.074710000000     0.0495591  
H32      H      0.306090000000     0.966440000000     0.109940000000     0.0687071  
H33      H      0.278920000000     0.976870000000     0.056480000000     0.0276675  
H34      H      0.186120000000     0.978120000000     0.119840000000     0.0541313  
H35      H      0.209230000000     0.982310000000     0.061590000000     0.0440171  
H36      H      0.369170000000     0.306560000000     0.975790000000     0.0804984  
H37      H      0.452020000000     0.314980000000     0.980450000000     0.0526663  
H38      H      0.504040000000     0.379840000000     0.014620000000     0.0493714  
H39      H      0.335490000000     0.290520000000     0.012660000000     0.0702554  
H40      H      0.385990000000     0.359830000000     0.040170000000     0.0327404  
H41      H      0.465080000000     0.297720000000     0.018980000000     0.0497596  
H42      H      0.464510000000     0.359640000000     0.048200000000     0.0413639  
H43      H      0.737400000000     0.881350000000     0.295430000000     0.0673438  
H44      H      0.711770000000     0.795340000000     0.291860000000     0.0610497  
H45      H      0.632520000000     0.754330000000     0.307550000000     0.0497456  
H46      H      0.728480000000     0.906790000000     0.259180000000     0.0641487  
H47      H      0.644810000000     0.858830000000     0.266570000000     0.0356233  
H48      H      0.680650000000     0.765150000000     0.255730000000     0.0560978  
H49      H      0.616340000000     0.773510000000     0.271300000000     0.055218   
H50      H      0.654720000000     0.905390000000     0.023420000000     0.0819261  
H51      H      0.738150000000     0.928730000000     0.018010000000     0.0458156  
H52      H      0.758180000000     0.889310000000     0.057620000000     0.0457766  
H53      H      0.612410000000     0.854160000000     0.004450000000     0.0784312  
H54      H      0.625900000000     0.808770000000     0.043840000000     0.0354101  
H55      H      0.753490000000     0.893130000000     0.995760000000     0.0464726  
H56      H      0.722270000000     0.836470000000     0.038230000000     0.0408853  
H57      H      0.850900000000     0.784440000000     0.110260000000     0.0679557  
H58      H      0.744770000000     0.687110000000     0.150980000000     0.0585688  
H59      H      0.688380000000     0.708610000000     0.140630000000     0.0521884  
H60      H      0.805820000000     0.780800000000     0.085310000000     0.0479957  
H61      H      0.817910000000     0.827690000000     0.133660000000     0.0334626  
H62      H      0.720340000000     0.665600000000     0.111360000000     0.0456084  
H63      H      0.709200000000     0.728130000000     0.099840000000     0.0422335  
H64      H      0.576610000000     0.909880000000     0.178910000000     0.073261   
H65      H      0.654680000000     0.983180000000     0.161530000000     0.0519468  
H66      H      0.683480000000     0.028450000000     0.211220000000     0.0499141  
H67      H      0.580540000000     0.863620000000     0.195970000000     0.079201   
H68      H      0.624170000000     0.912340000000     0.243550000000     0.0431057  
H69      H      0.706330000000     0.984660000000     0.172940000000     0.0507256  
H70      H      0.690390000000     0.985850000000     0.231670000000     0.0482165  
H71      H      0.960880000000     0.549930000000     0.375580000000     0.0723648  
H72      H      0.046760000000     0.585110000000     0.377580000000     0.0594129  
H73      H      0.071370000000     0.536580000000     0.403280000000     0.0492215  
H74      H      0.929050000000     0.506280000000     0.345860000000     0.0680667  
H75      H      0.946330000000     0.454190000000     0.374190000000     0.0330028  
H76      H      0.074430000000     0.568670000000     0.347430000000     0.0514723  
H77      H      0.042000000000     0.494210000000     0.372670000000     0.0449053  
H78      H      0.054110000000     0.538770000000     0.116610000000     0.0660733  
H79      H      0.963100000000     0.505810000000     0.114480000000     0.0434256  
H80      H      0.926230000000     0.426910000000     0.096920000000     0.0569897  
H81      H      0.075670000000     0.523780000000     0.151940000000     0.0724739  
H82      H      0.033440000000     0.444450000000     0.135330000000     0.0486039  
H83      H      0.930750000000     0.470010000000     0.148300000000     0.0537453  
H84      H      0.950170000000     0.412980000000     0.131650000000     0.0613155  
H85      H      0.892880000000     0.519430000000     0.073170000000     0.0600506  
H86      H      0.972370000000     0.595030000000     0.073410000000     0.0426135  
H87      H      0.003300000000     0.607670000000     0.017260000000     0.0548736  
H88      H      0.844180000000     0.522290000000     0.059240000000     0.072113   
H89      H      0.878410000000     0.543700000000     0.503180000000     0.0380727  
H90      H      0.974350000000     0.644150000000     0.056350000000     0.0495231  
H91      H      0.955590000000     0.610260000000     0.001320000000     0.0521114  
H92      H      0.294920000000     0.145810000000     0.407710000000     0.067682   
H93      H      0.333470000000     0.096350000000     0.412390000000     0.0481308  
H94      H      0.410550000000     0.143710000000     0.393890000000     0.0463719  
H95      H      0.297850000000     0.178930000000     0.443190000000     0.0707972  
H96      H      0.381970000000     0.226190000000     0.435210000000     0.0307703  
H97      H      0.368750000000     0.104610000000     0.447780000000     0.0483275  
H98      H      0.423970000000     0.179310000000     0.429650000000     0.0509232  
H99      H      0.314300000000     0.230100000000     0.157690000000     0.0632811  
H100     H      0.400670000000     0.265100000000     0.152110000000     0.0420061  
H101     H      0.428080000000     0.239770000000     0.196890000000     0.0469354  
H102     H      0.278150000000     0.174490000000     0.141550000000     0.0670724  
H103     H      0.301370000000     0.140820000000     0.184650000000     0.0354429  
H104     H      0.422830000000     0.232220000000     0.134370000000     0.0471442  
H105     H      0.400800000000     0.183570000000     0.181550000000     0.0419855  
H106     H      0.474700000000     0.100310000000     0.311370000000     0.070401   
H107     H      0.414360000000     0.052890000000     0.271600000000     0.050681   
H108     H      0.395560000000     0.102110000000     0.239740000000     0.0471273  
H109     H      0.531940000000     0.122570000000     0.303090000000     0.130981   
H110     H      0.521130000000     0.180970000000     0.265380000000     0.0391249  
H111     H      0.429460000000     0.053050000000     0.228710000000     0.0446194  
H112     H      0.451500000000     0.131340000000     0.222670000000     0.0422291  
H113     H      0.032230000000     0.350730000000     0.428890000000     0.0639937  
H114     H      0.107680000000     0.435070000000     0.427480000000     0.047039   
H115     H      0.127940000000     0.466970000000     0.483950000000     0.0577521  
H116     H      0.040540000000     0.307790000000     0.447150000000     0.0659475  
H117     H      0.057850000000     0.345160000000     0.000480000000     0.0315348  
H118     H      0.159510000000     0.439200000000     0.442070000000     0.0537247  
H119     H      0.127690000000     0.417580000000     0.498280000000     0.0533835  
H120     H      0.303150000000     0.246980000000     0.377510000000     0.155746   
H121     H      0.231870000000     0.186950000000     0.349200000000     0.0522971  
H122     H      0.185560000000     0.220470000000     0.337860000000     0.0473812  
H123     H      0.347020000000     0.279030000000     0.361860000000     0.148733   
H124     H      0.309540000000     0.326840000000     0.344960000000     0.0360957  
H125     H      0.230430000000     0.192890000000     0.305060000000     0.0547808  
H126     H      0.226660000000     0.260550000000     0.310180000000     0.0445911  
H127     H      0.399870000000     0.423300000000     0.359220000000     0.0760323  
H128     H      0.453680000000     0.394490000000     0.357220000000     0.051888   
H129     H      0.509850000000     0.431620000000     0.315400000000     0.0490197  
H130     H      0.414350000000     0.474000000000     0.381430000000     0.0830644  
H131     H      0.470130000000     0.520320000000     0.340480000000     0.0454516  
H132     H      0.507520000000     0.424260000000     0.377820000000     0.0533962  
H133     H      0.536290000000     0.483490000000     0.337450000000     0.0461642  
H134     H      0.568260000000     0.613500000000     0.082530000000     0.0632131  
H135     H      0.612440000000     0.572870000000     0.086570000000     0.0429934  
H136     H      0.579040000000     0.508920000000     0.124210000000     0.0442177  
H137     H      0.515360000000     0.588460000000     0.060730000000     0.0717865  
H138     H      0.478250000000     0.531450000000     0.102220000000     0.0386041  
H139     H      0.593130000000     0.521610000000     0.063510000000     0.0470963  
H140     H      0.527850000000     0.481370000000     0.100210000000     0.0467027  
H141     H      0.835690000000     0.121750000000     0.418590000000     0.0579795  
H142     H      0.917330000000     0.196940000000     0.416600000000     0.0482818  
H143     H      0.903280000000     0.254520000000     0.395470000000     0.0473505  
H144     H      0.803150000000     0.112490000000     0.456100000000     0.0596235  
H145     H      0.795780000000     0.179510000000     0.442820000000     0.0343138  
H146     H      0.929860000000     0.235930000000     0.449900000000     0.0554382  
H147     H      0.871680000000     0.251970000000     0.431830000000     0.0561606  
H148     H      0.750540000000     0.114330000000     0.179560000000     0.0619159  
H149     H      0.808640000000     0.087660000000     0.183160000000     0.0428169  
H150     H      0.877690000000     0.137170000000     0.152280000000     0.0443244  
H151     H      0.758770000000     0.161100000000     0.204450000000     0.0706463  
H152     H      0.825750000000     0.212970000000     0.172460000000     0.0427907  
H153     H      0.855630000000     0.115510000000     0.211230000000     0.0474847  
H154     H      0.888060000000     0.183760000000     0.177830000000     0.0466306  
H155     H      0.094220000000     0.258650000000     0.246160000000     0.0646658  
H156     H      0.119040000000     0.372330000000     0.252920000000     0.0660716  
H157     H      0.162260000000     0.402730000000     0.303330000000     0.0486411  
H158     H      0.147150000000     0.276470000000     0.266420000000     0.053915   
H159     H      0.091200000000     0.261310000000     0.307980000000     0.0332562  
H160     H      0.177610000000     0.400170000000     0.241820000000     0.0540934  
H161     H      0.200620000000     0.383370000000     0.292960000000     0.0521043  
H162     H      0.270930000000     0.341440000000     0.017790000000     0.081634   
H163     H      0.218640000000     0.260510000000     0.014680000000     0.0456828  
H164     H      0.158750000000     0.242170000000     0.053440000000     0.0458094  
H165     H      0.263470000000     0.379860000000     0.991580000000     0.0868585  
H166     H      0.197700000000     0.367750000000     0.025230000000     0.0371082  
H167     H      0.167290000000     0.238550000000     0.990930000000     0.0477994  
H168     H      0.134750000000     0.268280000000     0.028920000000     0.0419158  
H169     H      0.042230000000     0.299620000000     0.066310000000     0.0670994  
H170     H      0.039720000000     0.223230000000     0.071620000000     0.0430091  
H171     H      0.030810000000     0.199070000000     0.130610000000     0.0484777  
H172     H      0.990130000000     0.300640000000     0.070000000000     0.0841963  
H173     H      0.982720000000     0.274850000000     0.128170000000     0.0347623  
H174     H      0.985950000000     0.173430000000     0.078790000000     0.0460744  
H175     H      0.980370000000     0.202930000000     0.133700000000     0.0410833  
H176     H      0.329390000000     0.449720000000     0.190100000000     0.0738199  
H177     H      0.328580000000     0.377930000000     0.225910000000     0.0516139  
H178     H      0.296100000000     0.317200000000     0.187380000000     0.052534   
H179     H      0.380820000000     0.482430000000     0.166380000000     0.0756779  
H180     H      0.362290000000     0.414530000000     0.133520000000     0.0359878  
H181     H      0.373680000000     0.367990000000     0.215040000000     0.0525039  
H182     H      0.344020000000     0.344190000000     0.159980000000     0.0455987  
H183     H      0.495000000000     0.052680000000     0.359550000000     0.0638209  
H184     H      0.475770000000     0.970050000000     0.353230000000     0.0588723  
H185     H      0.540880000000     0.960940000000     0.336000000000     0.0672229  
H186     H      0.532880000000     0.085860000000     0.392100000000     0.0717428  
H187     H      0.596580000000     0.084570000000     0.366840000000     0.0412012  
H188     H      0.492830000000     0.945700000000     0.385490000000     0.0631043  
H189     H      0.573500000000     0.995590000000     0.370150000000     0.0636161  
H190     H      0.583270000000     0.076950000000     0.103580000000     0.067287   
H191     H      0.500350000000     0.063070000000     0.115760000000     0.0510035  
H192     H      0.445580000000     0.990640000000     0.093390000000     0.0477458  
H193     H      0.605270000000     0.052070000000     0.132290000000     0.064652   
H194     H      0.547900000000     0.976410000000     0.113800000000     0.0398431  
H195     H      0.470260000000     0.027310000000     0.150170000000     0.0447191  
H196     H      0.463710000000     0.962270000000     0.121710000000     0.0518431  
H197     H      0.708590000000     0.043920000000     0.010400000000     0.0763482  
H198     H      0.718020000000     0.122010000000     0.978440000000     0.0576106  
H199     H      0.650500000000     0.127230000000     0.485450000000     0.0524797  
H200     H      0.708470000000     0.046970000000     0.054530000000     0.0752901  
H201     H      0.650680000000     0.058940000000     0.054660000000     0.0539927  
H202     H      0.729300000000     0.166420000000     0.006700000000     0.0573488  
H203     H      0.653600000000     0.125290000000     0.029800000000     0.0530913  
H204     H      0.144450000000     0.867510000000     0.285560000000     0.0682587  
H205     H      0.186450000000     0.813120000000     0.281110000000     0.057703   
H206     H      0.257050000000     0.855560000000     0.249670000000     0.0626327  
H207     H      0.172200000000     0.913070000000     0.314190000000     0.0698402  
H208     H      0.240780000000     0.947260000000     0.281380000000     0.031054   
H209     H      0.234220000000     0.831480000000     0.308410000000     0.0579369  
H210     H      0.277290000000     0.901900000000     0.278020000000     0.0487285  
H211     H      0.065250000000     0.766070000000     0.052210000000     0.063131   
H212     H      0.117450000000     0.734570000000     0.052180000000     0.043005   
H213     H      0.161950000000     0.758120000000     0.003610000000     0.0506877  
H214     H      0.084380000000     0.821290000000     0.068590000000     0.0654574  
H215     H      0.132960000000     0.857250000000     0.021870000000     0.0332609  
H216     H      0.174660000000     0.768090000000     0.066410000000     0.0496408  
H217     H      0.196940000000     0.813920000000     0.018380000000     0.0421559  
H218     H      0.365170000000     0.877430000000     0.476660000000     0.0702993  
H219     H      0.369480000000     0.989610000000     0.443720000000     0.0584187  
H220     H      0.290110000000     0.964620000000     0.446950000000     0.0488413  
H221     H      0.321430000000     0.882660000000     0.497060000000     0.0507022  
H222     H      0.295370000000     0.843120000000     0.444130000000     0.035111   
H223     H      0.359090000000     0.996870000000     0.485830000000     0.0604818  
H224     H      0.283010000000     0.934300000000     0.484450000000     0.0432098  
H225     H      0.804570000000     0.601970000000     0.458950000000     0.0705427  
H226     H      0.868530000000     0.694390000000     0.455830000000     0.0484267  
H227     H      0.831080000000     0.732640000000     0.431200000000     0.046323   
H228     H      0.763230000000     0.586610000000     0.491200000000     0.0703879  
H229     H      0.732910000000     0.630160000000     0.465730000000     0.0283851  
H230     H      0.860820000000     0.727390000000     0.486900000000     0.0488155  
H231     H      0.788010000000     0.710980000000     0.462860000000     0.0420415  
H232     H      0.935700000000     0.688980000000     0.206230000000     0.0604478  
H233     H      0.882780000000     0.604980000000     0.208400000000     0.0415092  
H234     H      0.818790000000     0.585220000000     0.243950000000     0.0468886  
H235     H      0.921470000000     0.722720000000     0.180290000000     0.0691475  
H236     H      0.858990000000     0.710740000000     0.215900000000     0.0467773  
H237     H      0.832480000000     0.580050000000     0.183360000000     0.0461641  
H238     H      0.797440000000     0.612060000000     0.217530000000     0.0437605  
H239     H      0.682530000000     0.645040000000     0.248610000000     0.0664251  
H240     H      0.692760000000     0.575140000000     0.242840000000     0.0433853  
H241     H      0.690440000000     0.540100000000     0.297010000000     0.0515088  
H242     H      0.627330000000     0.636060000000     0.259380000000     0.0708558  
H243     H      0.631150000000     0.605210000000     0.313070000000     0.0324405  
H244     H      0.643720000000     0.520300000000     0.246900000000     0.0482662  
H245     H      0.636720000000     0.535760000000     0.306180000000     0.0466863  
H246     H      0.958660000000     0.686340000000     0.409130000000     0.0681895  
H247     H      0.968680000000     0.768390000000     0.403870000000     0.0510928  
H248     H      0.033790000000     0.819900000000     0.369240000000     0.053631   
H249     H      0.943920000000     0.653470000000     0.372000000000     0.069266   
H250     H      0.015340000000     0.703180000000     0.346180000000     0.031861   
H251     H      0.951640000000     0.781810000000     0.365460000000     0.0545074  
H252     H      0.014040000000     0.779730000000     0.336380000000     0.0517982  
H253     H      0.695390000000     0.033140000000     0.850690000000     0.0853187  
H254     H      0.777460000000     0.051750000000     0.887760000000     0.0554042  
H255     H      0.783950000000     0.985460000000     0.892180000000     0.0450061  
H256     H      0.699630000000     0.020020000000     0.808580000000     0.06985    
H257     H      0.699850000000     0.956830000000     0.824470000000     0.113584   
H258     H      0.821290000000     0.056130000000     0.860900000000     0.048175   
H259     H      0.778540000000     0.976710000000     0.848110000000     0.0487444  
H260     H      0.829580000000     0.302980000000     0.775050000000     0.0721402  
H261     H      0.937180000000     0.310550000000     0.741950000000     0.0676535  
H262     H      0.996570000000     0.382510000000     0.762230000000     0.056332   
H263     H      0.868750000000     0.336310000000     0.806580000000     0.0553813  
H264     H      0.871930000000     0.384320000000     0.761830000000     0.0365888  
H265     H      0.955040000000     0.302870000000     0.781760000000     0.0652389  
H266     H      0.968940000000     0.375080000000     0.801260000000     0.0455109  
H267     H      0.121960000000     0.699250000000     0.763780000000     0.0649362  
H268     H      0.048300000000     0.697880000000     0.752740000000     0.0482881  
H269     H      0.049160000000     0.729110000000     0.699130000000     0.05179    
H270     H      0.131830000000     0.657010000000     0.746360000000     0.0713481  
H271     H      0.138590000000     0.686920000000     0.690910000000     0.0353204  
H272     H      0.006120000000     0.654240000000     0.727090000000     0.0490831  
H273     H      0.052080000000     0.684940000000     0.678170000000     0.0431735  
H274     H      0.547930000000     0.675370000000     0.952570000000     0.0694271  
H275     H      0.635230000000     0.688910000000     0.962180000000     0.0439661  
H276     H      0.637690000000     0.629860000000     0.931620000000     0.0568121  
H277     H      0.540500000000     0.699170000000     0.914990000000     0.0760432  
H278     H      0.557490000000     0.649010000000     0.882160000000     0.0362172  
H279     H      0.673200000000     0.714340000000     0.928100000000     0.0533319  
H280     H      0.628750000000     0.650040000000     0.892880000000     0.0581944  
H281     H      0.314120000000     0.019340000000     0.624280000000     0.0643149  
H282     H      0.239500000000     0.026820000000     0.629770000000     0.0507165  
H283     H      0.212390000000     0.033610000000     0.574710000000     0.0495636  
H284     H      0.306090000000     0.966440000000     0.609940000000     0.0687077  
H285     H      0.278920000000     0.976870000000     0.556480000000     0.0276628  
H286     H      0.186120000000     0.978120000000     0.619840000000     0.0541043  
H287     H      0.209230000000     0.982310000000     0.561590000000     0.0440218  
H288     H      0.369170000000     0.306560000000     0.475790000000     0.0805374  
H289     H      0.452020000000     0.314980000000     0.480450000000     0.0527077  
H290     H      0.504040000000     0.379840000000     0.514620000000     0.0493587  
H291     H      0.335490000000     0.290520000000     0.512660000000     0.0702594  
H292     H      0.385990000000     0.359830000000     0.540170000000     0.0327365  
H293     H      0.465080000000     0.297720000000     0.518980000000     0.0497647  
H294     H      0.464510000000     0.359640000000     0.548200000000     0.0413598  
H295     H      0.737400000000     0.881350000000     0.795430000000     0.0673457  
H296     H      0.711770000000     0.795340000000     0.791860000000     0.0610475  
H297     H      0.632530000000     0.754330000000     0.807550000000     0.0497524  
H298     H      0.728480000000     0.906790000000     0.759170000000     0.0641444  
H299     H      0.644810000000     0.858830000000     0.766570000000     0.0356217  
H300     H      0.680650000000     0.765150000000     0.755730000000     0.0560953  
H301     H      0.616340000000     0.773510000000     0.771300000000     0.0552274  
H302     H      0.654720000000     0.905390000000     0.523420000000     0.0819418  
H303     H      0.738150000000     0.928730000000     0.518010000000     0.0458231  
H304     H      0.758180000000     0.889310000000     0.557620000000     0.0457734  
H305     H      0.612410000000     0.854160000000     0.504450000000     0.0784554  
H306     H      0.625900000000     0.808770000000     0.543840000000     0.0353926  
H307     H      0.753490000000     0.893130000000     0.495760000000     0.0465219  
H308     H      0.722270000000     0.836470000000     0.538230000000     0.0408719  
H309     H      0.850900000000     0.784440000000     0.610260000000     0.0679535  
H310     H      0.744770000000     0.687110000000     0.650980000000     0.0585698  
H311     H      0.688380000000     0.708610000000     0.640630000000     0.0521878  
H312     H      0.805820000000     0.780800000000     0.585310000000     0.0479913  
H313     H      0.817910000000     0.827700000000     0.633660000000     0.0334796  
H314     H      0.720340000000     0.665600000000     0.611360000000     0.0456086  
H315     H      0.709200000000     0.728130000000     0.599840000000     0.0422305  
H316     H      0.576610000000     0.909880000000     0.678910000000     0.0732563  
H317     H      0.654680000000     0.983180000000     0.661530000000     0.0519488  
H318     H      0.683480000000     0.028450000000     0.711220000000     0.0499126  
H319     H      0.580540000000     0.863620000000     0.695970000000     0.0791959  
H320     H      0.624170000000     0.912340000000     0.743550000000     0.0431121  
H321     H      0.706330000000     0.984660000000     0.672940000000     0.0507284  
H322     H      0.690390000000     0.985850000000     0.731670000000     0.0482172  
H323     H      0.960880000000     0.549930000000     0.875580000000     0.0723644  
H324     H      0.046760000000     0.585110000000     0.877580000000     0.0594113  
H325     H      0.071370000000     0.536580000000     0.903280000000     0.0492102  
H326     H      0.929040000000     0.506280000000     0.845860000000     0.0680779  
H327     H      0.946340000000     0.454190000000     0.874200000000     0.033003   
H328     H      0.074430000000     0.568670000000     0.847430000000     0.0514721  
H329     H      0.042000000000     0.494210000000     0.872670000000     0.0448984  
H330     H      0.054110000000     0.538770000000     0.616610000000     0.0660719  
H331     H      0.963100000000     0.505820000000     0.614480000000     0.0434079  
H332     H      0.926240000000     0.426910000000     0.596920000000     0.05701    
H333     H      0.075670000000     0.523780000000     0.651940000000     0.0724731  
H334     H      0.033440000000     0.444450000000     0.635330000000     0.048604   
H335     H      0.930750000000     0.470010000000     0.648310000000     0.0537374  
H336     H      0.950170000000     0.412980000000     0.631650000000     0.0613292  
H337     H      0.892880000000     0.519430000000     0.573170000000     0.0600509  
H338     H      0.972370000000     0.595030000000     0.573410000000     0.0426136  
H339     H      0.003300000000     0.607670000000     0.517260000000     0.0548608  
H340     H      0.844180000000     0.522290000000     0.559240000000     0.0721153  
H341     H      0.878410000000     0.543700000000     0.003180000000     0.0380758  
H342     H      0.974350000000     0.644150000000     0.556350000000     0.0495246  
H343     H      0.955590000000     0.610270000000     0.501320000000     0.0520914  
H344     H      0.294920000000     0.145810000000     0.907710000000     0.0676723  
H345     H      0.333470000000     0.096350000000     0.912390000000     0.0481236  
H346     H      0.410550000000     0.143710000000     0.893890000000     0.0463721  
H347     H      0.297850000000     0.178930000000     0.943190000000     0.0707845  
H348     H      0.381970000000     0.226190000000     0.935220000000     0.0307712  
H349     H      0.368750000000     0.104610000000     0.947790000000     0.048317   
H350     H      0.423970000000     0.179310000000     0.929650000000     0.0509145  
H351     H      0.314300000000     0.230100000000     0.657690000000     0.0632816  
H352     H      0.400670000000     0.265100000000     0.652110000000     0.0420052  
H353     H      0.428080000000     0.239770000000     0.696890000000     0.0469391  
H354     H      0.278150000000     0.174490000000     0.641550000000     0.0670722  
H355     H      0.301370000000     0.140820000000     0.684650000000     0.0354429  
H356     H      0.422830000000     0.232220000000     0.634370000000     0.0471418  
H357     H      0.400800000000     0.183570000000     0.681550000000     0.04199    
H358     H      0.474700000000     0.100310000000     0.811370000000     0.0703991  
H359     H      0.414360000000     0.052890000000     0.771600000000     0.0506807  
H360     H      0.395560000000     0.102110000000     0.739740000000     0.047127   
H361     H      0.531940000000     0.122570000000     0.803090000000     0.130959   
H362     H      0.521130000000     0.180970000000     0.765380000000     0.0391239  
H363     H      0.429460000000     0.053050000000     0.728710000000     0.0446182  
H364     H      0.451500000000     0.131340000000     0.722670000000     0.0422286  
H365     H      0.032230000000     0.350730000000     0.928890000000     0.0639881  
H366     H      0.107680000000     0.435070000000     0.927480000000     0.0470344  
H367     H      0.127940000000     0.466970000000     0.983950000000     0.0577452  
H368     H      0.040540000000     0.307790000000     0.947150000000     0.0659363  
H369     H      0.057850000000     0.345160000000     0.500480000000     0.0314886  
H370     H      0.159510000000     0.439200000000     0.942070000000     0.0537114  
H371     H      0.127690000000     0.417580000000     0.998270000000     0.0533725  
H372     H      0.303150000000     0.246980000000     0.877510000000     0.155746   
H373     H      0.231870000000     0.186950000000     0.849200000000     0.052298   
H374     H      0.185560000000     0.220470000000     0.837850000000     0.0473627  
H375     H      0.347020000000     0.279030000000     0.861860000000     0.148734   
H376     H      0.309540000000     0.326840000000     0.844960000000     0.0360953  
H377     H      0.230430000000     0.192890000000     0.805060000000     0.0547828  
H378     H      0.226660000000     0.260550000000     0.810170000000     0.0445722  
H379     H      0.399870000000     0.423300000000     0.859220000000     0.0760312  
H380     H      0.453680000000     0.394490000000     0.857220000000     0.0518607  
H381     H      0.509850000000     0.431620000000     0.815400000000     0.0490462  
H382     H      0.414350000000     0.474000000000     0.881430000000     0.0830675  
H383     H      0.470130000000     0.520320000000     0.840480000000     0.0454534  
H384     H      0.507520000000     0.424260000000     0.877820000000     0.0533655  
H385     H      0.536290000000     0.483490000000     0.837450000000     0.0461878  
H386     H      0.568260000000     0.613500000000     0.582530000000     0.0632098  
H387     H      0.612440000000     0.572870000000     0.586570000000     0.0429922  
H388     H      0.579040000000     0.508920000000     0.624220000000     0.0442131  
H389     H      0.515360000000     0.588460000000     0.560730000000     0.0717801  
H390     H      0.478250000000     0.531450000000     0.602220000000     0.0386038  
H391     H      0.593130000000     0.521610000000     0.563510000000     0.0470934  
H392     H      0.527850000000     0.481370000000     0.600210000000     0.0466995  
H393     H      0.835690000000     0.121750000000     0.918590000000     0.0579813  
H394     H      0.917330000000     0.196940000000     0.916600000000     0.0482818  
H395     H      0.903280000000     0.254520000000     0.895470000000     0.0473496  
H396     H      0.803160000000     0.112490000000     0.956100000000     0.0596229  
H397     H      0.795780000000     0.179510000000     0.942820000000     0.0343068  
H398     H      0.929860000000     0.235930000000     0.949900000000     0.0554361  
H399     H      0.871670000000     0.251970000000     0.931830000000     0.0561518  
H400     H      0.750540000000     0.114330000000     0.679560000000     0.0619202  
H401     H      0.808640000000     0.087660000000     0.683160000000     0.0428183  
H402     H      0.877690000000     0.137170000000     0.652280000000     0.0443246  
H403     H      0.758770000000     0.161100000000     0.704450000000     0.0706478  
H404     H      0.825750000000     0.212970000000     0.672460000000     0.0427842  
H405     H      0.855630000000     0.115510000000     0.711230000000     0.0474854  
H406     H      0.888060000000     0.183760000000     0.677830000000     0.0466305  
H407     H      0.094220000000     0.258650000000     0.746160000000     0.0646657  
H408     H      0.119040000000     0.372330000000     0.752920000000     0.066069   
H409     H      0.162260000000     0.402720000000     0.803330000000     0.0486547  
H410     H      0.147150000000     0.276470000000     0.766420000000     0.0539147  
H411     H      0.091200000000     0.261310000000     0.807980000000     0.033256   
H412     H      0.177610000000     0.400170000000     0.741820000000     0.0540905  
H413     H      0.200620000000     0.383370000000     0.792960000000     0.0521116  
H414     H      0.270930000000     0.341440000000     0.517790000000     0.0816449  
H415     H      0.218640000000     0.260510000000     0.514680000000     0.0456944  
H416     H      0.158750000000     0.242170000000     0.553440000000     0.0458001  
H417     H      0.263470000000     0.379860000000     0.491580000000     0.0869054  
H418     H      0.197700000000     0.367750000000     0.525230000000     0.0370908  
H419     H      0.167290000000     0.238550000000     0.490930000000     0.0478501  
H420     H      0.134750000000     0.268280000000     0.528920000000     0.0419004  
H421     H      0.042230000000     0.299620000000     0.566310000000     0.0670942  
H422     H      0.039720000000     0.223230000000     0.571620000000     0.0430051  
H423     H      0.030810000000     0.199070000000     0.630610000000     0.0484773  
H424     H      0.990130000000     0.300640000000     0.570000000000     0.0841899  
H425     H      0.982720000000     0.274850000000     0.628170000000     0.0347622  
H426     H      0.985950000000     0.173430000000     0.578790000000     0.046071   
H427     H      0.980370000000     0.202930000000     0.633700000000     0.0410834  
H428     H      0.329390000000     0.449720000000     0.690100000000     0.0738333  
H429     H      0.328580000000     0.377930000000     0.725910000000     0.0516251  
H430     H      0.296100000000     0.317200000000     0.687380000000     0.0525026  
H431     H      0.380820000000     0.482430000000     0.666380000000     0.0757034  
H432     H      0.362290000000     0.414530000000     0.633520000000     0.0359793  
H433     H      0.373680000000     0.367990000000     0.715040000000     0.0525203  
H434     H      0.344020000000     0.344190000000     0.659980000000     0.0455694  
H435     H      0.495000000000     0.052680000000     0.859550000000     0.0638258  
H436     H      0.475770000000     0.970050000000     0.853220000000     0.058862   
H437     H      0.540880000000     0.960940000000     0.836000000000     0.067226   
H438     H      0.532890000000     0.085860000000     0.892100000000     0.071747   
H439     H      0.596580000000     0.084570000000     0.866840000000     0.0411996  
H440     H      0.492830000000     0.945700000000     0.885490000000     0.0630956  
H441     H      0.573500000000     0.995590000000     0.870150000000     0.0636183  
H442     H      0.583270000000     0.076950000000     0.603580000000     0.0672793  
H443     H      0.500350000000     0.063070000000     0.615760000000     0.0510015  
H444     H      0.445580000000     0.990640000000     0.593390000000     0.0477443  
H445     H      0.605270000000     0.052070000000     0.632290000000     0.0646474  
H446     H      0.547900000000     0.976410000000     0.613800000000     0.0398438  
H447     H      0.470260000000     0.027310000000     0.650170000000     0.0447178  
H448     H      0.463710000000     0.962270000000     0.621710000000     0.0518393  
H449     H      0.708590000000     0.043920000000     0.510400000000     0.0763388  
H450     H      0.718020000000     0.122010000000     0.478440000000     0.0576438  
H451     H      0.650500000000     0.127230000000     0.985450000000     0.052448   
H452     H      0.708470000000     0.046970000000     0.554530000000     0.0752913  
H453     H      0.650680000000     0.058940000000     0.554660000000     0.0539942  
H454     H      0.729300000000     0.166420000000     0.506700000000     0.0573444  
H455     H      0.653600000000     0.125290000000     0.529800000000     0.0530919  
H456     H      0.144450000000     0.867510000000     0.785560000000     0.0682588  
H457     H      0.186450000000     0.813120000000     0.781110000000     0.0577041  
H458     H      0.257050000000     0.855560000000     0.749670000000     0.0626326  
H459     H      0.172200000000     0.913070000000     0.814190000000     0.0698399  
H460     H      0.240780000000     0.947260000000     0.781370000000     0.031052   
H461     H      0.234220000000     0.831480000000     0.808410000000     0.0579362  
H462     H      0.277290000000     0.901900000000     0.778020000000     0.0487283  
H463     H      0.065250000000     0.766070000000     0.552210000000     0.0631225  
H464     H      0.117450000000     0.734570000000     0.552180000000     0.0429906  
H465     H      0.161960000000     0.758120000000     0.503610000000     0.0506919  
H466     H      0.084380000000     0.821290000000     0.568590000000     0.0654568  
H467     H      0.132960000000     0.857250000000     0.521880000000     0.0332532  
H468     H      0.174660000000     0.768080000000     0.566410000000     0.049617   
H469     H      0.196940000000     0.813920000000     0.518380000000     0.0421608  
H470     H      0.365170000000     0.877430000000     0.976660000000     0.0702912  
H471     H      0.369480000000     0.989610000000     0.943720000000     0.0584145  
H472     H      0.290110000000     0.964620000000     0.946950000000     0.048835   
H473     H      0.321430000000     0.882660000000     0.997060000000     0.0506897  
H474     H      0.295370000000     0.843120000000     0.944130000000     0.0351158  
H475     H      0.359090000000     0.996870000000     0.985830000000     0.0604743  
H476     H      0.283020000000     0.934310000000     0.984450000000     0.0431968  
H477     H      0.804570000000     0.601970000000     0.958950000000     0.0705382  
H478     H      0.868530000000     0.694390000000     0.955830000000     0.0484153  
H479     H      0.831080000000     0.732640000000     0.931200000000     0.0463089  
H480     H      0.763230000000     0.586610000000     0.991190000000     0.0703833  
H481     H      0.732910000000     0.630160000000     0.965730000000     0.0283738  
H482     H      0.860820000000     0.727390000000     0.986900000000     0.0488026  
H483     H      0.788000000000     0.710980000000     0.962860000000     0.0420301  
H484     H      0.935700000000     0.688980000000     0.706220000000     0.0604432  
H485     H      0.882770000000     0.604980000000     0.708400000000     0.0415246  
H486     H      0.818800000000     0.585220000000     0.743950000000     0.0469047  
H487     H      0.921470000000     0.722730000000     0.680290000000     0.0691382  
H488     H      0.858990000000     0.710740000000     0.715900000000     0.0467716  
H489     H      0.832480000000     0.580060000000     0.683360000000     0.0461816  
H490     H      0.797440000000     0.612060000000     0.717530000000     0.0437741  
H491     H      0.682530000000     0.645040000000     0.748610000000     0.0664357  
H492     H      0.692760000000     0.575140000000     0.742840000000     0.0433949  
H493     H      0.690440000000     0.540100000000     0.797010000000     0.0514782  
H494     H      0.627330000000     0.636060000000     0.759380000000     0.0708611  
H495     H      0.631150000000     0.605210000000     0.813070000000     0.0324502  
H496     H      0.643720000000     0.520300000000     0.746900000000     0.0482737  
H497     H      0.636720000000     0.535760000000     0.806180000000     0.0466523  
H498     H      0.958650000000     0.686340000000     0.909130000000     0.0681841  
H499     H      0.968680000000     0.768390000000     0.903870000000     0.0510912  
H500     H      0.033790000000     0.819900000000     0.869240000000     0.0536408  
H501     H      0.943920000000     0.653470000000     0.872010000000     0.0692692  
H502     H      0.015340000000     0.703180000000     0.846180000000     0.0318615  
H503     H      0.951640000000     0.781810000000     0.865460000000     0.054506   
H504     H      0.014040000000     0.779730000000     0.836390000000     0.0518143  
N1       N      0.717590000000     0.962940000000     0.372250000000    -0.171097   
N2       N      0.760360000000     0.046440000000     0.337120000000    -0.161362   
N3       N      0.937880000000     0.390210000000     0.261980000000    -0.177055   
N4       N      0.889080000000     0.296770000000     0.279840000000    -0.157577   
N5       N      0.113950000000     0.731510000000     0.200870000000    -0.176642   
N6       N      0.066600000000     0.650750000000     0.236560000000    -0.165554   
N7       N      0.570220000000     0.618920000000     0.423190000000    -0.177224   
N8       N      0.608470000000     0.712120000000     0.424820000000    -0.163866   
N9       N      0.276770000000     0.035460000000     0.068630000000    -0.17802    
N10      N      0.245150000000     0.969720000000     0.118550000000    -0.163462   
N11      N      0.442370000000     0.382990000000     0.007910000000    -0.176507   
N12      N      0.397770000000     0.288580000000     0.014650000000    -0.164438   
N13      N      0.649320000000     0.823370000000     0.307750000000    -0.17633    
N14      N      0.706950000000     0.836450000000     0.255220000000    -0.163688   
N15      N      0.686100000000     0.861010000000     0.065240000000    -0.177774   
N16      N      0.682220000000     0.872070000000     0.996880000000    -0.164573   
N17      N      0.750100000000     0.771840000000     0.137850000000    -0.177364   
N18      N      0.788430000000     0.720820000000     0.110830000000    -0.160177   
N19      N      0.621650000000     0.968910000000     0.226310000000    -0.176502   
N20      N      0.644080000000     0.921740000000     0.181250000000    -0.161657   
N21      N      0.997940000000     0.500720000000     0.406110000000    -0.176483   
N22      N      0.001640000000     0.537070000000     0.343440000000    -0.16381    
N23      N      0.998650000000     0.453170000000     0.095420000000    -0.175017   
N24      N      0.003720000000     0.501090000000     0.152240000000    -0.164519   
N25      N      0.939250000000     0.544690000000     0.015920000000    -0.175221   
N26      N      0.907770000000     0.585180000000     0.060570000000    -0.166137   
N27      N      0.383590000000     0.188410000000     0.394390000000    -0.179909   
N28      N      0.331310000000     0.139830000000     0.448150000000    -0.16461    
N29      N      0.355720000000     0.200970000000     0.204010000000    -0.178229   
N30      N      0.350010000000     0.201940000000     0.134930000000    -0.16631    
N31      N      0.449650000000     0.146050000000     0.273190000000    -0.180022   
N32      N      0.484900000000     0.090100000000     0.262020000000    -0.161759   
N33      N      0.062180000000     0.405780000000     0.485060000000    -0.174552   
N34      N      0.100840000000     0.372200000000     0.439990000000    -0.164472   
N35      N      0.244620000000     0.275610000000     0.360500000000    -0.178938   
N36      N      0.292930000000     0.238210000000     0.328590000000    -0.149536   
N37      N      0.474720000000     0.469290000000     0.314360000000    -0.175158   
N38      N      0.463620000000     0.452210000000     0.382580000000    -0.160178   
N39      N      0.535400000000     0.537290000000     0.127550000000    -0.174503   
N40      N      0.552620000000     0.553280000000     0.058950000000    -0.164951   
N41      N      0.836430000000     0.196810000000     0.399690000000    -0.177485   
N42      N      0.868550000000     0.172530000000     0.454630000000    -0.165555   
N43      N      0.832540000000     0.163950000000     0.145390000000    -0.177456   
N44      N      0.807280000000     0.138700000000     0.211180000000    -0.166134   
N45      N      0.136370000000     0.332920000000     0.310490000000    -0.177603   
N46      N      0.143360000000     0.328080000000     0.241000000000    -0.159553   
N47      N      0.194050000000     0.314600000000     0.054460000000    -0.178055   
N48      N      0.212380000000     0.309970000000     0.988200000000    -0.162535   
N49      N      0.040140000000     0.266370000000     0.127630000000    -0.178094   
N50      N      0.984260000000     0.235060000000     0.072080000000    -0.165164   
N51      N      0.301290000000     0.372480000000     0.158730000000    -0.176529   
N52      N      0.378130000000     0.428650000000     0.195600000000    -0.161919   
N53      N      0.559790000000     0.030780000000     0.333380000000    -0.177516   
N54      N      0.511690000000     0.015420000000     0.391970000000    -0.164284   
N55      N      0.510670000000     0.996980000000     0.083670000000    -0.177641   
N56      N      0.538980000000     0.041850000000     0.143140000000    -0.165682   
N57      N      0.633560000000     0.063230000000     0.006030000000    -0.178305   
N58      N      0.725780000000     0.107240000000     0.027820000000    -0.160995   
N59      N      0.222610000000     0.893970000000     0.247980000000    -0.175989   
N60      N      0.195810000000     0.865330000000     0.313570000000    -0.162287   
N61      N      0.133090000000     0.800990000000     0.000560000000    -0.174005   
N62      N      0.132140000000     0.797760000000     0.070340000000    -0.164599   
N63      N      0.287830000000     0.901570000000     0.441730000000    -0.176821   
N64      N      0.372610000000     0.943650000000     0.476940000000    -0.156395   
N65      N      0.783220000000     0.661630000000     0.429130000000    -0.178026   
N66      N      0.817520000000     0.655690000000     0.490920000000    -0.163252   
N67      N      0.854970000000     0.657650000000     0.245090000000    -0.174798   
N68      N      0.875940000000     0.651500000000     0.178560000000    -0.165582   
N69      N      0.691270000000     0.603070000000     0.304780000000    -0.176106   
N70      N      0.631850000000     0.576510000000     0.250590000000    -0.16482    
N71      N      0.037510000000     0.759400000000     0.377740000000    -0.175104   
N72      N      0.942210000000     0.715000000000     0.369470000000    -0.16388    
N73      N      0.717590000000     0.962940000000     0.872250000000    -0.171098   
N74      N      0.760360000000     0.046440000000     0.837120000000    -0.161371   
N75      N      0.937880000000     0.390210000000     0.761980000000    -0.177053   
N76      N      0.889080000000     0.296770000000     0.779840000000    -0.157577   
N77      N      0.113950000000     0.731510000000     0.700870000000    -0.176684   
N78      N      0.066600000000     0.650750000000     0.736560000000    -0.165538   
N79      N      0.570220000000     0.618920000000     0.923190000000    -0.177222   
N80      N      0.608470000000     0.712120000000     0.924820000000    -0.16387    
N81      N      0.276770000000     0.035460000000     0.568630000000    -0.178018   
N82      N      0.245150000000     0.969720000000     0.618550000000    -0.163451   
N83      N      0.442370000000     0.382990000000     0.507910000000    -0.176492   
N84      N      0.397770000000     0.288580000000     0.514650000000    -0.164429   
N85      N      0.649320000000     0.823370000000     0.807750000000    -0.176329   
N86      N      0.706960000000     0.836450000000     0.755220000000    -0.163685   
N87      N      0.686100000000     0.861010000000     0.565240000000    -0.177775   
N88      N      0.682220000000     0.872060000000     0.496880000000    -0.16452    
N89      N      0.750100000000     0.771840000000     0.637850000000    -0.177371   
N90      N      0.788430000000     0.720820000000     0.610830000000    -0.160177   
N91      N      0.621650000000     0.968910000000     0.726310000000    -0.176499   
N92      N      0.644080000000     0.921740000000     0.681250000000    -0.161655   
N93      N      0.997940000000     0.500720000000     0.906100000000    -0.176423   
N94      N      0.001640000000     0.537070000000     0.843440000000    -0.163803   
N95      N      0.998650000000     0.453170000000     0.595420000000    -0.17501    
N96      N      0.003720000000     0.501090000000     0.652240000000    -0.164527   
N97      N      0.939250000000     0.544690000000     0.515920000000    -0.175229   
N98      N      0.907770000000     0.585180000000     0.560570000000    -0.166125   
N99      N      0.383590000000     0.188410000000     0.894390000000    -0.179998   
N100     N      0.331310000000     0.139830000000     0.948150000000    -0.164684   
N101     N      0.355720000000     0.200970000000     0.704010000000    -0.178227   
N102     N      0.350010000000     0.201940000000     0.634930000000    -0.16631    
N103     N      0.449650000000     0.146050000000     0.773190000000    -0.180021   
N104     N      0.484900000000     0.090100000000     0.762020000000    -0.161765   
N105     N      0.062180000000     0.405790000000     0.985060000000    -0.174641   
N106     N      0.100840000000     0.372200000000     0.939990000000    -0.1645     
N107     N      0.244620000000     0.275610000000     0.860500000000    -0.178943   
N108     N      0.292930000000     0.238210000000     0.828590000000    -0.149535   
N109     N      0.474720000000     0.469290000000     0.814360000000    -0.175144   
N110     N      0.463620000000     0.452210000000     0.882580000000    -0.160169   
N111     N      0.535400000000     0.537290000000     0.627550000000    -0.174489   
N112     N      0.552620000000     0.553280000000     0.558950000000    -0.164954   
N113     N      0.836430000000     0.196810000000     0.899690000000    -0.17745    
N114     N      0.868550000000     0.172530000000     0.954630000000    -0.165541   
N115     N      0.832540000000     0.163950000000     0.645390000000    -0.177457   
N116     N      0.807280000000     0.138700000000     0.711180000000    -0.166132   
N117     N      0.136370000000     0.332920000000     0.810490000000    -0.1776     
N118     N      0.143360000000     0.328080000000     0.741000000000    -0.159554   
N119     N      0.194050000000     0.314600000000     0.554460000000    -0.178063   
N120     N      0.212380000000     0.309970000000     0.488190000000    -0.162554   
N121     N      0.040140000000     0.266370000000     0.627630000000    -0.178094   
N122     N      0.984260000000     0.235060000000     0.572080000000    -0.165166   
N123     N      0.301290000000     0.372480000000     0.658730000000    -0.176552   
N124     N      0.378130000000     0.428650000000     0.695600000000    -0.161866   
N125     N      0.559790000000     0.030780000000     0.833380000000    -0.177514   
N126     N      0.511690000000     0.015420000000     0.891970000000    -0.16428    
N127     N      0.510670000000     0.996980000000     0.583670000000    -0.177624   
N128     N      0.538980000000     0.041850000000     0.643130000000    -0.165602   
N129     N      0.633560000000     0.063230000000     0.506030000000    -0.178328   
N130     N      0.725780000000     0.107240000000     0.527820000000    -0.160993   
N131     N      0.222610000000     0.893970000000     0.747980000000    -0.175988   
N132     N      0.195810000000     0.865330000000     0.813570000000    -0.162288   
N133     N      0.133090000000     0.800990000000     0.500560000000    -0.173971   
N134     N      0.132140000000     0.797760000000     0.570340000000    -0.164617   
N135     N      0.287820000000     0.901570000000     0.941730000000    -0.176864   
N136     N      0.372610000000     0.943650000000     0.976940000000    -0.156395   
N137     N      0.783220000000     0.661630000000     0.929130000000    -0.178064   
N138     N      0.817520000000     0.655690000000     0.990920000000    -0.163273   
N139     N      0.854970000000     0.657650000000     0.745090000000    -0.174809   
N140     N      0.875940000000     0.651500000000     0.678560000000    -0.165588   
N141     N      0.691270000000     0.603070000000     0.804770000000    -0.176049   
N142     N      0.631850000000     0.576510000000     0.750590000000    -0.164816   
N143     N      0.037510000000     0.759400000000     0.877740000000    -0.1751     
N144     N      0.942210000000     0.715000000000     0.869480000000    -0.163806   
Ni1      Ni     0.812440000000     0.622810000000     0.340980000000     1.01094    
Ni2      Ni     0.821830000000     0.695360000000     0.332490000000     1.01665    
Ni3      Ni     0.169760000000     0.801090000000     0.403460000000     1.01178    
Ni4      Ni     0.158580000000     0.863480000000     0.410510000000     1.0073     
Ni5      Ni     0.503260000000     0.969020000000     0.986030000000     1.04874    
Ni6      Ni     0.505510000000     0.039110000000     0.990460000000     1.01013    
Ni7      Ni     0.164710000000     0.284320000000     0.152380000000     1.00468    
Ni8      Ni     0.175120000000     0.357250000000     0.143630000000     1.05027    
Ni9      Ni     0.854290000000     0.136280000000     0.051610000000     1.00835    
Ni10     Ni     0.855600000000     0.205900000000     0.048630000000     1.02199    
Ni11     Ni     0.511490000000     0.472650000000     0.217530000000     0.998033   
Ni12     Ni     0.499480000000     0.534460000000     0.224980000000     1.02074    
Ni13     Ni     0.203910000000     0.359900000000     0.398650000000     1.03826    
Ni14     Ni     0.140430000000     0.285950000000     0.402220000000     1.00017    
Ni15     Ni     0.402860000000     0.230170000000     0.298990000000     1.01873    
Ni16     Ni     0.339110000000     0.155990000000     0.299020000000     1.02374    
Ni17     Ni     0.035990000000     0.507860000000     0.002880000000     1.01609    
Ni18     Ni     0.964120000000     0.441680000000     0.997630000000     1.02883    
Ni19     Ni     0.734300000000     0.879500000000     0.159720000000     1.00606    
Ni20     Ni     0.660990000000     0.814560000000     0.160340000000     1.03027    
Ni21     Ni     0.882300000000     0.687500000000     0.080970000000     1.00692    
Ni22     Ni     0.813020000000     0.618740000000     0.088170000000     1.0053     
Ni23     Ni     0.587980000000     0.067220000000     0.237430000000     1.01632    
Ni24     Ni     0.518930000000     0.996920000000     0.238170000000     1.04111    
Ni25     Ni     0.301940000000     0.161040000000     0.041620000000     1.01735    
Ni26     Ni     0.373440000000     0.164470000000     0.044070000000     1.00315    
Ni27     Ni     0.477290000000     0.508730000000     0.974030000000     1.04382    
Ni28     Ni     0.541490000000     0.499570000000     0.966410000000     0.99961    
Ni29     Ni     0.147110000000     0.854470000000     0.162350000000     1.0067     
Ni30     Ni     0.210710000000     0.844530000000     0.153960000000     1.01215    
Ni31     Ni     0.966890000000     0.518800000000     0.245070000000     1.00252    
Ni32     Ni     0.037990000000     0.521600000000     0.250350000000     1.02284    
Ni33     Ni     0.788560000000     0.170030000000     0.305020000000     1.02141    
Ni34     Ni     0.858390000000     0.170020000000     0.305430000000     1.00945    
Ni35     Ni     0.627350000000     0.837180000000     0.404430000000     1.04082    
Ni36     Ni     0.699870000000     0.842620000000     0.401770000000     1.00518    
Ni37     Ni     0.812440000000     0.622810000000     0.840980000000     1.01091    
Ni38     Ni     0.821830000000     0.695360000000     0.832490000000     1.0167     
Ni39     Ni     0.169760000000     0.801090000000     0.903460000000     1.01187    
Ni40     Ni     0.158580000000     0.863480000000     0.910510000000     1.00729    
Ni41     Ni     0.503260000000     0.969020000000     0.486020000000     1.04879    
Ni42     Ni     0.505510000000     0.039110000000     0.490460000000     1.0103     
Ni43     Ni     0.164710000000     0.284320000000     0.652380000000     1.00468    
Ni44     Ni     0.175120000000     0.357250000000     0.643630000000     1.05026    
Ni45     Ni     0.854290000000     0.136280000000     0.551610000000     1.00836    
Ni46     Ni     0.855600000000     0.205900000000     0.548630000000     1.02199    
Ni47     Ni     0.511490000000     0.472650000000     0.717530000000     0.997995   
Ni48     Ni     0.499480000000     0.534460000000     0.724980000000     1.02072    
Ni49     Ni     0.203910000000     0.359900000000     0.898650000000     1.0384     
Ni50     Ni     0.140430000000     0.285950000000     0.902220000000     1.00015    
Ni51     Ni     0.402860000000     0.230170000000     0.798990000000     1.01875    
Ni52     Ni     0.339110000000     0.155990000000     0.799020000000     1.02371    
Ni53     Ni     0.035990000000     0.507860000000     0.502880000000     1.01594    
Ni54     Ni     0.964120000000     0.441680000000     0.497630000000     1.02899    
Ni55     Ni     0.734300000000     0.879500000000     0.659720000000     1.00582    
Ni56     Ni     0.660990000000     0.814560000000     0.660340000000     1.03031    
Ni57     Ni     0.882300000000     0.687500000000     0.580970000000     1.00663    
Ni58     Ni     0.813020000000     0.618750000000     0.588170000000     1.00529    
Ni59     Ni     0.587980000000     0.067220000000     0.737430000000     1.01631    
Ni60     Ni     0.518930000000     0.996920000000     0.738170000000     1.0411     
Ni61     Ni     0.301940000000     0.161040000000     0.541620000000     1.01732    
Ni62     Ni     0.373440000000     0.164470000000     0.544070000000     1.00312    
Ni63     Ni     0.477290000000     0.508730000000     0.474030000000     1.04387    
Ni64     Ni     0.541490000000     0.499570000000     0.466410000000     0.999652   
Ni65     Ni     0.147110000000     0.854470000000     0.662350000000     1.00653    
Ni66     Ni     0.210710000000     0.844530000000     0.653960000000     1.0122     
Ni67     Ni     0.966890000000     0.518800000000     0.745070000000     1.00236    
Ni68     Ni     0.037990000000     0.521600000000     0.750350000000     1.02286    
Ni69     Ni     0.788560000000     0.170030000000     0.805020000000     1.02137    
Ni70     Ni     0.858390000000     0.170020000000     0.805430000000     1.00943    
Ni71     Ni     0.627350000000     0.837180000000     0.904430000000     1.04092    
Ni72     Ni     0.699870000000     0.842610000000     0.901770000000     1.00521    
O1       O      0.831580000000     0.624880000000     0.296080000000    -0.446727   
O2       O      0.793190000000     0.625000000000     0.385280000000    -0.426801   
O3       O      0.751450000000     0.598510000000     0.325700000000    -0.44381    
O4       O      0.874560000000     0.652270000000     0.355690000000    -0.442168   
O5       O      0.882880000000     0.719820000000     0.347320000000    -0.44356    
O6       O      0.759460000000     0.665930000000     0.318290000000    -0.42213    
O7       O      0.803610000000     0.693530000000     0.377700000000    -0.442276   
O8       O      0.840820000000     0.692880000000     0.288060000000    -0.42285    
O9       O      0.153290000000     0.787120000000     0.449370000000    -0.437229   
O10      O      0.186480000000     0.820040000000     0.358290000000    -0.436581   
O11      O      0.231150000000     0.838770000000     0.416850000000    -0.444195   
O12      O      0.107130000000     0.766930000000     0.390570000000    -0.424577   
O13      O      0.097570000000     0.825800000000     0.395820000000    -0.443552   
O14      O      0.220590000000     0.896710000000     0.425470000000    -0.445023   
O15      O      0.176850000000     0.878850000000     0.365180000000    -0.442771   
O16      O      0.140100000000     0.843880000000     0.455040000000    -0.431096   
O17      O      0.505030000000     0.976580000000     0.439350000000    -0.450497   
O18      O      0.503230000000     0.966140000000     0.032950000000    -0.43376    
O19      O      0.438330000000     0.941220000000     0.484660000000    -0.443536   
O20      O      0.567800000000     0.001770000000     0.988310000000    -0.42394    
O21      O      0.569760000000     0.066810000000     0.994540000000    -0.450645   
O22      O      0.440980000000     0.007120000000     0.485800000000    -0.443571   
O23      O      0.500630000000     0.029410000000     0.037610000000    -0.44021    
O24      O      0.511160000000     0.043850000000     0.443240000000    -0.444601   
O25      O      0.153520000000     0.290740000000     0.197940000000    -0.446367   
O26      O      0.175580000000     0.282780000000     0.106000000000    -0.449052   
O27      O      0.228820000000     0.312340000000     0.160640000000    -0.443736   
O28      O      0.101910000000     0.260970000000     0.143220000000    -0.4538     
O29      O      0.111000000000     0.328700000000     0.135310000000    -0.425308   
O30      O      0.238520000000     0.380290000000     0.151680000000    -0.426191   
O31      O      0.185200000000     0.351000000000     0.098340000000    -0.43516    
O32      O      0.164540000000     0.359430000000     0.189670000000    -0.448573   
O33      O      0.861370000000     0.139560000000     0.004620000000    -0.449654   
O34      O      0.846650000000     0.137090000000     0.098150000000    -0.454189   
O35      O      0.789830000000     0.107150000000     0.045470000000    -0.444286   
O36      O      0.918770000000     0.170430000000     0.058030000000    -0.448946   
O37      O      0.918460000000     0.234850000000     0.059780000000    -0.438823   
O38      O      0.792650000000     0.172410000000     0.037230000000    -0.44097    
O39      O      0.840060000000     0.198130000000     0.094980000000    -0.422988   
O40      O      0.871010000000     0.208490000000     0.002610000000    -0.433869   
O41      O      0.525810000000     0.491200000000     0.171980000000    -0.444642   
O42      O      0.497330000000     0.458860000000     0.263350000000    -0.447098   
O43      O      0.448020000000     0.437230000000     0.207040000000    -0.4438     
O44      O      0.573420000000     0.511520000000     0.229390000000    -0.449911   
O45      O      0.562060000000     0.568820000000     0.238590000000    -0.44009    
O46      O      0.438220000000     0.496380000000     0.210670000000    -0.43249    
O47      O      0.482130000000     0.514180000000     0.269800000000    -0.425827   
O48      O      0.516610000000     0.549920000000     0.179690000000    -0.423354   
O49      O      0.183260000000     0.363220000000     0.355270000000    -0.450663   
O50      O      0.220220000000     0.351570000000     0.442070000000    -0.442207   
O51      O      0.237720000000     0.334110000000     0.380670000000    -0.432609   
O52      O      0.166370000000     0.380930000000     0.417170000000    -0.45072    
O53      O      0.107370000000     0.311980000000     0.422140000000    -0.441489   
O54      O      0.177550000000     0.265320000000     0.381670000000    -0.44592    
O55      O      0.162650000000     0.281440000000     0.444750000000    -0.448676   
O56      O      0.122930000000     0.294850000000     0.359400000000    -0.448527   
O57      O      0.408090000000     0.224830000000     0.345470000000    -0.43144    
O58      O      0.393600000000     0.231050000000     0.252340000000    -0.450275   
O59      O      0.360630000000     0.250250000000     0.308190000000    -0.437177   
O60      O      0.440700000000     0.204540000000     0.290580000000    -0.429938   
O61      O      0.380380000000     0.136000000000     0.287200000000    -0.453966   
O62      O      0.301580000000     0.180660000000     0.309910000000    -0.440844   
O63      O      0.331170000000     0.163730000000     0.253190000000    -0.43424    
O64      O      0.351350000000     0.153880000000     0.345450000000    -0.444076   
O65      O      0.033760000000     0.494500000000     0.049110000000    -0.431812   
O66      O      0.033700000000     0.516700000000     0.456330000000    -0.446641   
O67      O      0.003910000000     0.539680000000     0.010760000000    -0.447213   
O68      O      0.063110000000     0.471870000000     0.494610000000    -0.445167   
O69      O      0.996410000000     0.409810000000     0.489720000000    -0.423187   
O70      O      0.937110000000     0.477790000000     0.006030000000    -0.420598   
O71      O      0.966080000000     0.455260000000     0.451430000000    -0.424996   
O72      O      0.965990000000     0.433140000000     0.044270000000    -0.440033   
O73      O      0.727560000000     0.881950000000     0.113000000000    -0.451417   
O74      O      0.735860000000     0.872930000000     0.206530000000    -0.446423   
O75      O      0.757920000000     0.839800000000     0.152840000000    -0.442033   
O76      O      0.705460000000     0.914590000000     0.166590000000    -0.4447     
O77      O      0.638050000000     0.853170000000     0.172540000000    -0.442028   
O78      O      0.688730000000     0.780430000000     0.147940000000    -0.450558   
O79      O      0.671230000000     0.807440000000     0.206050000000    -0.445992   
O80      O      0.656010000000     0.826080000000     0.114650000000    -0.431512   
O81      O      0.893740000000     0.684710000000     0.127270000000    -0.442336   
O82      O      0.865530000000     0.686360000000     0.035380000000    -0.441239   
O83      O      0.850380000000     0.718100000000     0.091940000000    -0.447993   
O84      O      0.909990000000     0.652090000000     0.070460000000    -0.445422   
O85      O      0.844550000000     0.588240000000     0.075700000000    -0.449166   
O86      O      0.786060000000     0.654070000000     0.100570000000    -0.448345   
O87      O      0.800370000000     0.622580000000     0.042290000000    -0.443326   
O88      O      0.830450000000     0.618930000000     0.133350000000    -0.445682   
O89      O      0.591340000000     0.062430000000     0.283950000000    -0.433007   
O90      O      0.580090000000     0.068070000000     0.190550000000    -0.445791   
O91      O      0.551420000000     0.094410000000     0.245900000000    -0.430423   
O92      O      0.619460000000     0.034450000000     0.230750000000    -0.44417    
O93      O      0.554760000000     0.969490000000     0.230220000000    -0.434963   
O94      O      0.487310000000     0.028280000000     0.246380000000    -0.455227   
O95      O      0.513660000000     0.004240000000     0.191840000000    -0.451028   
O96      O      0.528330000000     0.995500000000     0.284740000000    -0.444624   
O97      O      0.300210000000     0.147360000000     0.995840000000    -0.452308   
O98      O      0.308580000000     0.175990000000     0.087440000000    -0.452459   
O99      O      0.333920000000     0.223440000000     0.030240000000    -0.447484   
O100     O      0.274890000000     0.098750000000     0.053010000000    -0.449889   
O101     O      0.341730000000     0.102840000000     0.057800000000    -0.424875   
O102     O      0.400390000000     0.225710000000     0.030070000000    -0.447223   
O103     O      0.377570000000     0.183910000000     0.089140000000    -0.444141   
O104     O      0.364690000000     0.145670000000     0.998550000000    -0.440288   
O105     O      0.502260000000     0.535370000000     0.016130000000    -0.442492   
O106     O      0.456660000000     0.482200000000     0.431320000000    -0.431215   
O107     O      0.448020000000     0.450470000000     0.993870000000    -0.427377   
O108     O      0.510350000000     0.565660000000     0.453110000000    -0.433231   
O109     O      0.571270000000     0.558570000000     0.446780000000    -0.439133   
O110     O      0.507300000000     0.441300000000     0.985840000000    -0.44685    
O111     O      0.516910000000     0.474030000000     0.423870000000    -0.439141   
O112     O      0.561020000000     0.524490000000     0.009910000000    -0.442744   
O113     O      0.171820000000     0.878620000000     0.205330000000    -0.421243   
O114     O      0.126880000000     0.829850000000     0.118820000000    -0.443129   
O115     O      0.116350000000     0.795300000000     0.181090000000    -0.445353   
O116     O      0.181820000000     0.912810000000     0.143230000000    -0.441672   
O117     O      0.241510000000     0.903960000000     0.135250000000    -0.443359   
O118     O      0.176010000000     0.786470000000     0.173380000000    -0.429277   
O119     O      0.185850000000     0.819630000000     0.111350000000    -0.44368    
O120     O      0.230810000000     0.868670000000     0.197440000000    -0.438847   
O121     O      0.970030000000     0.510330000000     0.198430000000    -0.44389    
O122     O      0.968170000000     0.526230000000     0.292330000000    -0.444014   
O123     O      0.000500000000     0.582780000000     0.239300000000    -0.446326   
O124     O      0.938040000000     0.455490000000     0.250930000000    -0.444543   
O125     O      0.004130000000     0.457850000000     0.257430000000    -0.445594   
O126     O      0.066660000000     0.584790000000     0.243510000000    -0.449672   
O127     O      0.035780000000     0.531230000000     0.296590000000    -0.451712   
O128     O      0.036320000000     0.512710000000     0.203520000000    -0.446129   
O129     O      0.784570000000     0.157570000000     0.258800000000    -0.448317   
O130     O      0.796780000000     0.182120000000     0.351410000000    -0.427992   
O131     O      0.823480000000     0.233150000000     0.295540000000    -0.440628   
O132     O      0.758840000000     0.106900000000     0.314610000000    -0.433426   
O133     O      0.825130000000     0.109520000000     0.320760000000    -0.450184   
O134     O      0.887280000000     0.230640000000     0.290550000000    -0.445087   
O135     O      0.865910000000     0.190170000000     0.350570000000    -0.445272   
O136     O      0.845720000000     0.149950000000     0.260250000000    -0.444435   
O137     O      0.637930000000     0.849940000000     0.450490000000    -0.449149   
O138     O      0.621340000000     0.826090000000     0.358000000000    -0.428698   
O139     O      0.602530000000     0.774450000000     0.413460000000    -0.44589    
O140     O      0.657450000000     0.899830000000     0.394640000000    -0.420753   
O141     O      0.724690000000     0.904260000000     0.391070000000    -0.453959   
O142     O      0.670640000000     0.780310000000     0.412830000000    -0.447914   
O143     O      0.687990000000     0.828420000000     0.355350000000    -0.440931   
O144     O      0.706810000000     0.857760000000     0.447900000000    -0.44787    
O145     O      0.831580000000     0.624880000000     0.796080000000    -0.446723   
O146     O      0.793190000000     0.625010000000     0.885280000000    -0.426891   
O147     O      0.751450000000     0.598510000000     0.825700000000    -0.443885   
O148     O      0.874560000000     0.652270000000     0.855690000000    -0.442089   
O149     O      0.882880000000     0.719830000000     0.847310000000    -0.443404   
O150     O      0.759460000000     0.665930000000     0.818290000000    -0.422146   
O151     O      0.803610000000     0.693530000000     0.877700000000    -0.442402   
O152     O      0.840820000000     0.692880000000     0.788060000000    -0.422852   
O153     O      0.153290000000     0.787130000000     0.949370000000    -0.437456   
O154     O      0.186480000000     0.820040000000     0.858290000000    -0.436597   
O155     O      0.231150000000     0.838770000000     0.916850000000    -0.444227   
O156     O      0.107130000000     0.766930000000     0.890570000000    -0.42459    
O157     O      0.097570000000     0.825800000000     0.895820000000    -0.443552   
O158     O      0.220590000000     0.896710000000     0.925470000000    -0.445039   
O159     O      0.176850000000     0.878850000000     0.865180000000    -0.442772   
O160     O      0.140100000000     0.843880000000     0.955040000000    -0.43105    
O161     O      0.505030000000     0.976580000000     0.939350000000    -0.450365   
O162     O      0.503230000000     0.966140000000     0.532950000000    -0.433704   
O163     O      0.438330000000     0.941220000000     0.984660000000    -0.443529   
O164     O      0.567800000000     0.001770000000     0.488310000000    -0.423938   
O165     O      0.569760000000     0.066810000000     0.494540000000    -0.450668   
O166     O      0.440980000000     0.007120000000     0.985810000000    -0.443561   
O167     O      0.500620000000     0.029410000000     0.537600000000    -0.440134   
O168     O      0.511160000000     0.043850000000     0.943240000000    -0.444567   
O169     O      0.153520000000     0.290740000000     0.697940000000    -0.446367   
O170     O      0.175580000000     0.282780000000     0.606000000000    -0.449053   
O171     O      0.228820000000     0.312340000000     0.660640000000    -0.443738   
O172     O      0.101910000000     0.260970000000     0.643220000000    -0.4538     
O173     O      0.111000000000     0.328700000000     0.635310000000    -0.425309   
O174     O      0.238520000000     0.380290000000     0.651680000000    -0.426192   
O175     O      0.185200000000     0.351000000000     0.598340000000    -0.435162   
O176     O      0.164540000000     0.359430000000     0.689670000000    -0.448573   
O177     O      0.861370000000     0.139560000000     0.504620000000    -0.449709   
O178     O      0.846650000000     0.137090000000     0.598150000000    -0.45419    
O179     O      0.789830000000     0.107150000000     0.545470000000    -0.444289   
O180     O      0.918770000000     0.170430000000     0.558030000000    -0.448951   
O181     O      0.918460000000     0.234850000000     0.559780000000    -0.438828   
O182     O      0.792650000000     0.172410000000     0.537230000000    -0.440975   
O183     O      0.840060000000     0.198130000000     0.594980000000    -0.422989   
O184     O      0.871010000000     0.208490000000     0.502610000000    -0.433928   
O185     O      0.525800000000     0.491200000000     0.671980000000    -0.444676   
O186     O      0.497330000000     0.458860000000     0.763350000000    -0.447094   
O187     O      0.448020000000     0.437220000000     0.707040000000    -0.443648   
O188     O      0.573420000000     0.511520000000     0.729390000000    -0.44991    
O189     O      0.562060000000     0.568820000000     0.738580000000    -0.440121   
O190     O      0.438220000000     0.496380000000     0.710670000000    -0.432441   
O191     O      0.482130000000     0.514180000000     0.769800000000    -0.425831   
O192     O      0.516610000000     0.549930000000     0.679690000000    -0.42322    
O193     O      0.183260000000     0.363220000000     0.855270000000    -0.450682   
O194     O      0.220220000000     0.351570000000     0.942070000000    -0.442202   
O195     O      0.237720000000     0.334110000000     0.880670000000    -0.432635   
O196     O      0.166370000000     0.380920000000     0.917170000000    -0.450853   
O197     O      0.107370000000     0.311980000000     0.922140000000    -0.441505   
O198     O      0.177550000000     0.265320000000     0.881670000000    -0.445921   
O199     O      0.162650000000     0.281440000000     0.944750000000    -0.448656   
O200     O      0.122930000000     0.294850000000     0.859400000000    -0.448525   
O201     O      0.408090000000     0.224830000000     0.845470000000    -0.431385   
O202     O      0.393600000000     0.231050000000     0.752340000000    -0.450276   
O203     O      0.360630000000     0.250250000000     0.808190000000    -0.43718    
O204     O      0.440700000000     0.204540000000     0.790580000000    -0.429936   
O205     O      0.380380000000     0.136000000000     0.787200000000    -0.453955   
O206     O      0.301580000000     0.180660000000     0.809910000000    -0.440851   
O207     O      0.331170000000     0.163730000000     0.753190000000    -0.434236   
O208     O      0.351360000000     0.153880000000     0.845450000000    -0.444031   
O209     O      0.033760000000     0.494500000000     0.549110000000    -0.4318     
O210     O      0.033700000000     0.516700000000     0.956330000000    -0.446659   
O211     O      0.003910000000     0.539680000000     0.510760000000    -0.447209   
O212     O      0.063110000000     0.471870000000     0.994610000000    -0.445217   
O213     O      0.996410000000     0.409810000000     0.989720000000    -0.423106   
O214     O      0.937110000000     0.477790000000     0.506030000000    -0.420655   
O215     O      0.966080000000     0.455270000000     0.951430000000    -0.42506    
O216     O      0.965990000000     0.433140000000     0.544270000000    -0.440071   
O217     O      0.727560000000     0.881960000000     0.612990000000    -0.451284   
O218     O      0.735860000000     0.872930000000     0.706530000000    -0.446391   
O219     O      0.757920000000     0.839800000000     0.652830000000    -0.442036   
O220     O      0.705460000000     0.914590000000     0.666590000000    -0.444664   
O221     O      0.638050000000     0.853170000000     0.672540000000    -0.442031   
O222     O      0.688730000000     0.780430000000     0.647940000000    -0.450578   
O223     O      0.671230000000     0.807440000000     0.706050000000    -0.445995   
O224     O      0.656010000000     0.826080000000     0.614650000000    -0.431531   
O225     O      0.893740000000     0.684710000000     0.627280000000    -0.442288   
O226     O      0.865530000000     0.686360000000     0.535380000000    -0.44119    
O227     O      0.850380000000     0.718100000000     0.591940000000    -0.447966   
O228     O      0.909990000000     0.652090000000     0.570450000000    -0.445357   
O229     O      0.844550000000     0.588240000000     0.575700000000    -0.449072   
O230     O      0.786060000000     0.654070000000     0.600570000000    -0.448416   
O231     O      0.800370000000     0.622580000000     0.542290000000    -0.443331   
O232     O      0.830450000000     0.618930000000     0.633350000000    -0.445689   
O233     O      0.591340000000     0.062430000000     0.783950000000    -0.433005   
O234     O      0.580090000000     0.068070000000     0.690550000000    -0.445763   
O235     O      0.551420000000     0.094410000000     0.745900000000    -0.430423   
O236     O      0.619460000000     0.034450000000     0.730750000000    -0.444168   
O237     O      0.554760000000     0.969490000000     0.730220000000    -0.434965   
O238     O      0.487310000000     0.028280000000     0.746380000000    -0.455227   
O239     O      0.513660000000     0.004240000000     0.691840000000    -0.450999   
O240     O      0.528330000000     0.995500000000     0.784740000000    -0.444623   
O241     O      0.300210000000     0.147360000000     0.495840000000    -0.452348   
O242     O      0.308580000000     0.175990000000     0.587440000000    -0.452452   
O243     O      0.333920000000     0.223440000000     0.530240000000    -0.447484   
O244     O      0.274890000000     0.098750000000     0.553010000000    -0.449891   
O245     O      0.341730000000     0.102840000000     0.557800000000    -0.424875   
O246     O      0.400390000000     0.225710000000     0.530070000000    -0.447225   
O247     O      0.377570000000     0.183910000000     0.589140000000    -0.444135   
O248     O      0.364690000000     0.145670000000     0.498550000000    -0.440334   
O249     O      0.502260000000     0.535370000000     0.516130000000    -0.442526   
O250     O      0.456660000000     0.482210000000     0.931320000000    -0.431139   
O251     O      0.448020000000     0.450470000000     0.493870000000    -0.427478   
O252     O      0.510350000000     0.565660000000     0.953110000000    -0.433223   
O253     O      0.571270000000     0.558570000000     0.946780000000    -0.439132   
O254     O      0.507300000000     0.441300000000     0.485840000000    -0.446849   
O255     O      0.516910000000     0.474030000000     0.923870000000    -0.439102   
O256     O      0.561020000000     0.524490000000     0.509910000000    -0.44278    
O257     O      0.171820000000     0.878620000000     0.705330000000    -0.421217   
O258     O      0.126880000000     0.829850000000     0.618810000000    -0.443095   
O259     O      0.116350000000     0.795300000000     0.681090000000    -0.445239   
O260     O      0.181820000000     0.912810000000     0.643230000000    -0.441698   
O261     O      0.241510000000     0.903960000000     0.635250000000    -0.443385   
O262     O      0.176010000000     0.786470000000     0.673380000000    -0.429282   
O263     O      0.185850000000     0.819630000000     0.611350000000    -0.443716   
O264     O      0.230810000000     0.868670000000     0.697440000000    -0.438852   
O265     O      0.970030000000     0.510330000000     0.698430000000    -0.443878   
O266     O      0.968170000000     0.526230000000     0.792330000000    -0.443993   
O267     O      0.000500000000     0.582790000000     0.739300000000    -0.446216   
O268     O      0.938040000000     0.455490000000     0.750930000000    -0.444512   
O269     O      0.004130000000     0.457850000000     0.757430000000    -0.445592   
O270     O      0.066660000000     0.584790000000     0.743510000000    -0.449669   
O271     O      0.035780000000     0.531230000000     0.796590000000    -0.451713   
O272     O      0.036320000000     0.512710000000     0.703520000000    -0.446131   
O273     O      0.784570000000     0.157570000000     0.758800000000    -0.448308   
O274     O      0.796770000000     0.182120000000     0.851410000000    -0.427844   
O275     O      0.823480000000     0.233150000000     0.795540000000    -0.440623   
O276     O      0.758840000000     0.106900000000     0.814610000000    -0.433422   
O277     O      0.825130000000     0.109520000000     0.820760000000    -0.450183   
O278     O      0.887280000000     0.230640000000     0.790550000000    -0.445085   
O279     O      0.865910000000     0.190170000000     0.850570000000    -0.44522    
O280     O      0.845720000000     0.149950000000     0.760250000000    -0.44443    
O281     O      0.637930000000     0.849930000000     0.950490000000    -0.449226   
O282     O      0.621340000000     0.826090000000     0.858000000000    -0.428716   
O283     O      0.602530000000     0.774450000000     0.913460000000    -0.44591    
O284     O      0.657450000000     0.899830000000     0.894640000000    -0.420765   
O285     O      0.724690000000     0.904260000000     0.891070000000    -0.453886   
O286     O      0.670640000000     0.780310000000     0.912830000000    -0.448013   
O287     O      0.687990000000     0.828420000000     0.855350000000    -0.440961   
O288     O      0.706810000000     0.857760000000     0.947900000000    -0.447881   


