data_structure

_audit_creation_method RASPA-1.0
_audit_creation_date 2023-5-22
_audit_author_name 'Poobodin Mano'

_cell_length_a    42.1321
_cell_length_b    42.0126
_cell_length_c    41.701
_cell_angle_alpha 90
_cell_angle_beta  90
_cell_angle_gamma 90
_cell_volume      73814.1

_symmetry_cell_setting          triclinic
_symmetry_space_group_name_Hall 'P 1'
_symmetry_space_group_name_H-M  'P 1'
_symmetry_Int_Tables_number     1

_symmetry_equiv_pos_as_xyz 'x,y,z'

loop_
_atom_site_label
_atom_site_type_symbol
_atom_site_fract_x
_atom_site_fract_y
_atom_site_fract_z
_atom_site_charge
C1       C      0.005360000000     0.486670000000     0.181090000000     0.434197   
C2       C      0.004060000000     0.980810000000     0.058980000000     0.436006   
C3       C      0.504770000000     0.423040000000     0.121930000000     0.430325   
C4       C      0.505100000000     0.044340000000     0.116760000000     0.430805   
C5       C      0.007950000000     0.233060000000     0.195320000000     0.433563   
C6       C      0.004640000000     0.233870000000     0.072920000000     0.431577   
C7       C      0.005800000000     0.172430000000     0.134200000000     0.434189   
C8       C      0.006460000000     0.293830000000     0.135860000000     0.434076   
C9       C      0.254310000000     0.056320000000     0.129220000000     0.428214   
C10      C      0.258020000000     0.434820000000     0.125320000000     0.428838   
C11      C      0.257810000000     0.994030000000     0.188160000000     0.430478   
C12      C      0.254950000000     0.996580000000     0.065930000000     0.429928   
C13      C      0.252160000000     0.186180000000     0.122220000000     0.428529   
C14      C      0.256280000000     0.306520000000     0.139420000000     0.428565   
C15      C      0.254550000000     0.255010000000     0.070320000000     0.428417   
C16      C      0.253410000000     0.238960000000     0.191600000000     0.429496   
C17      C      0.999630000000     0.455440000000     0.868650000000     0.424203   
C18      C      0.999970000000     0.076670000000     0.878400000000     0.423908   
C19      C      0.000510000000     0.011590000000     0.934000000000     0.434052   
C20      C      0.999610000000     0.020310000000     0.812110000000     0.425712   
C21      C      0.999700000000     0.328270000000     0.888860000000     0.4217     
C22      C      0.998690000000     0.207180000000     0.877720000000     0.423781   
C23      C      0.000800000000     0.262400000000     0.944990000000     0.431372   
C24      C      0.997240000000     0.272360000000     0.822970000000     0.42548    
C25      C      0.249820000000     0.514770000000     0.813850000000     0.429298   
C26      C      0.253100000000     0.514570000000     0.936160000000     0.428732   
C27      C      0.249970000000     0.075150000000     0.875830000000     0.427642   
C28      C      0.253440000000     0.453530000000     0.874520000000     0.427333   
C29      C      0.253750000000     0.273520000000     0.818620000000     0.430542   
C30      C      0.253940000000     0.254870000000     0.939470000000     0.428836   
C31      C      0.251420000000     0.204810000000     0.868970000000     0.428019   
C32      C      0.255880000000     0.324820000000     0.888550000000     0.42833    
C33      C      0.446400000000     0.504810000000     0.362130000000     0.428177   
C34      C      0.066770000000     0.508830000000     0.376150000000     0.427768   
C35      C      0.999410000000     0.507000000000     0.431050000000     0.418631   
C36      C      0.013570000000     0.506440000000     0.309350000000     0.429503   
C37      C      0.999100000000     0.228040000000     0.325860000000     0.425157   
C38      C      0.984630000000     0.234210000000     0.447150000000     0.42802    
C39      C      0.052690000000     0.231720000000     0.394360000000     0.428005   
C40      C      0.432530000000     0.230130000000     0.377960000000     0.428592   
C41      C      0.262880000000     0.007180000000     0.438180000000     0.426654   
C42      C      0.249840000000     0.008630000000     0.316780000000     0.426229   
C43      C      0.316810000000     0.005600000000     0.371630000000     0.422769   
C44      C      0.196400000000     0.010140000000     0.385110000000     0.423437   
C45      C      0.302800000000     0.230240000000     0.382430000000     0.428435   
C46      C      0.181520000000     0.229970000000     0.381790000000     0.427691   
C47      C      0.241640000000     0.226810000000     0.320880000000     0.429538   
C48      C      0.243120000000     0.233270000000     0.443050000000     0.428716   
C49      C      0.003240000000     0.006200000000     0.562750000000     0.421321   
C50      C      0.988250000000     0.004740000000     0.684280000000     0.424372   
C51      C      0.435470000000     0.003380000000     0.617290000000     0.423259   
C52      C      0.055530000000     0.007490000000     0.632690000000     0.42293    
C53      C      0.041620000000     0.246530000000     0.646290000000     0.428185   
C54      C      0.421400000000     0.244920000000     0.630060000000     0.427927   
C55      C      0.974840000000     0.249190000000     0.698880000000     0.428568   
C56      C      0.489430000000     0.241960000000     0.577590000000     0.428432   
C57      C      0.253480000000     0.503190000000     0.683770000000     0.43007    
C58      C      0.238240000000     0.505360000000     0.562570000000     0.431684   
C59      C      0.185560000000     0.506550000000     0.629730000000     0.428679   
C60      C      0.305570000000     0.502130000000     0.614000000000     0.429453   
C61      C      0.230530000000     0.250320000000     0.695470000000     0.430802   
C62      C      0.230410000000     0.241760000000     0.573500000000     0.429276   
C63      C      0.170120000000     0.245670000000     0.633910000000     0.428713   
C64      C      0.291410000000     0.246180000000     0.635630000000     0.427499   
C65      C      0.341960000000     0.276250000000     0.638570000000    -0.0106881  
C66      C      0.341600000000     0.216580000000     0.644100000000    -0.0107019  
C67      C      0.371560000000     0.273880000000     0.617450000000    -0.0106954  
C68      C      0.371310000000     0.214530000000     0.623110000000    -0.0105609  
C69      C      0.091840000000     0.276960000000     0.651740000000    -0.0103198  
C70      C      0.091920000000     0.217610000000     0.656970000000    -0.0102762  
C71      C      0.119410000000     0.275040000000     0.627950000000    -0.0107533  
C72      C      0.119610000000     0.215350000000     0.633370000000    -0.0106142  
C73      C      0.354630000000     0.471000000000     0.603350000000    -0.0102893  
C74      C      0.354740000000     0.030170000000     0.598020000000    -0.0103953  
C75      C      0.385810000000     0.472360000000     0.622260000000    -0.011066   
C76      C      0.384730000000     0.032480000000     0.618200000000    -0.0105619  
C77      C      0.136040000000     0.038200000000     0.627610000000    -0.0114937  
C78      C      0.134720000000     0.477970000000     0.626000000000    -0.010266   
C79      C      0.104460000000     0.037920000000     0.646010000000    -0.0109738  
C80      C      0.104780000000     0.478520000000     0.646310000000    -0.00970014 
C81      C      0.247120000000     0.206170000000     0.495760000000    -0.0106338  
C82      C      0.249390000000     0.265790000000     0.492220000000    -0.0104011  
C83      C      0.224710000000     0.208730000000     0.524520000000    -0.010551   
C84      C      0.226640000000     0.268360000000     0.520610000000    -0.0103137  
C85      C      0.235750000000     0.976340000000     0.510890000000    -0.00766988 
C86      C      0.235600000000     0.035980000000     0.511810000000    -0.0104817  
C87      C      0.264880000000     0.476710000000     0.489040000000    -0.0101346  
C88      C      0.264650000000     0.536400000000     0.489820000000    -0.0101252  
C89      C      0.998210000000     0.268580000000     0.525200000000    -0.0149838  
C90      C      0.497620000000     0.208950000000     0.528880000000    -0.0104744  
C91      C      0.976350000000     0.266970000000     0.495970000000    -0.00933638 
C92      C      0.475940000000     0.207320000000     0.499460000000    -0.0106997  
C93      C      0.353010000000     0.260700000000     0.385850000000    -0.0107191  
C94      C      0.353170000000     0.200860000000     0.390200000000    -0.0107116  
C95      C      0.382790000000     0.259020000000     0.365010000000    -0.0102314  
C96      C      0.382870000000     0.199580000000     0.369190000000    -0.0103201  
C97      C      0.131040000000     0.259800000000     0.376010000000    -0.0106917  
C98      C      0.130720000000     0.200110000000     0.381210000000    -0.0105931  
C99      C      0.103160000000     0.261910000000     0.399410000000    -0.010522   
C100     C      0.102950000000     0.202560000000     0.404730000000    -0.0106005  
C101     C      0.491620000000     0.036930000000     0.481880000000    -0.0113009  
C102     C      0.490660000000     0.477190000000     0.481710000000    -0.0108451  
C103     C      0.012100000000     0.036480000000     0.512290000000    -0.00793894 
C104     C      0.511510000000     0.476760000000     0.511780000000    -0.0107458  
C105     C      0.367900000000     0.534160000000     0.373870000000    -0.0105287  
C106     C      0.366580000000     0.474030000000     0.372460000000    -0.0112986  
C107     C      0.396330000000     0.033710000000     0.351400000000    -0.0101165  
C108     C      0.396770000000     0.974270000000     0.351780000000    -0.00822849 
C109     C      0.117630000000     0.479740000000     0.376660000000    -0.0102715  
C110     C      0.116720000000     0.039730000000     0.372200000000    -0.0115288  
C111     C      0.146440000000     0.482140000000     0.398580000000    -0.0101118  
C112     C      0.146780000000     0.041310000000     0.392910000000    -0.0108622  
C113     C      0.230560000000     0.295470000000     0.768800000000    -0.00845046 
C114     C      0.274670000000     0.255150000000     0.766920000000    -0.0103928  
C115     C      0.211200000000     0.275310000000     0.745310000000    -0.00887677 
C116     C      0.253950000000     0.233110000000     0.746480000000    -0.00930471 
C117     C      0.224750000000     0.496230000000     0.764010000000    -0.00923186 
C118     C      0.268130000000     0.037720000000     0.762810000000    -0.00982529 
C119     C      0.240500000000     0.479050000000     0.735890000000    -0.00941322 
C120     C      0.281180000000     0.022860000000     0.731960000000    -0.00991605 
C121     C      0.224740000000     0.402080000000     0.874880000000    -0.0104536  
C122     C      0.284280000000     0.403270000000     0.869690000000    -0.0111865  
C123     C      0.227580000000     0.375420000000     0.899550000000    -0.0102644  
C124     C      0.286610000000     0.375270000000     0.893280000000    -0.0107274  
C125     C      0.220370000000     0.155520000000     0.858170000000    -0.0107114  
C126     C      0.279720000000     0.154160000000     0.858750000000    -0.00993312 
C127     C      0.219380000000     0.125630000000     0.879400000000    -0.0111936  
C128     C      0.279160000000     0.125870000000     0.881560000000    -0.010469   
C129     C      0.454550000000     0.274760000000     0.748290000000    -0.00915932 
C130     C      0.494420000000     0.230050000000     0.750880000000    -0.0100017  
C131     C      0.974160000000     0.293560000000     0.772800000000    -0.00861959 
C132     C      0.016080000000     0.250710000000     0.771760000000    -0.00281133 
C133     C      0.477890000000     0.042220000000     0.761750000000    -0.00999328 
C134     C      0.022640000000     0.502200000000     0.761190000000    -0.008529   
C135     C      0.462440000000     0.024950000000     0.733400000000    -0.00889869 
C136     C      0.004800000000     0.482620000000     0.736120000000    -0.00308809 
C137     C      0.470430000000     0.379410000000     0.893230000000    -0.0106069  
C138     C      0.029910000000     0.379020000000     0.891010000000    -0.0110624  
C139     C      0.469570000000     0.404620000000     0.866730000000    -0.0106068  
C140     C      0.029090000000     0.404380000000     0.864670000000    -0.00794382 
C141     C      0.968820000000     0.156990000000     0.869330000000    -0.0108201  
C142     C      0.028300000000     0.157520000000     0.866090000000    -0.00852291 
C143     C      0.470250000000     0.126450000000     0.889230000000    -0.0106467  
C144     C      0.529800000000     0.126980000000     0.885940000000    -0.0105763  
C145     C      0.275500000000     0.218050000000     0.242260000000    -0.00945743 
C146     C      0.233560000000     0.261000000000     0.242060000000    -0.00939918 
C147     C      0.258190000000     0.201490000000     0.270090000000    -0.00970821 
C148     C      0.217450000000     0.245360000000     0.270700000000    -0.00873173 
C149     C      0.224820000000     0.265280000000     0.020030000000    -0.0106756  
C150     C      0.284420000000     0.264460000000     0.019890000000    -0.0108609  
C151     C      0.224410000000     0.244570000000     0.989900000000    -0.0102872  
C152     C      0.283960000000     0.243990000000     0.989530000000    -0.0102337  
C153     C      0.238450000000     0.471670000000     0.239160000000    -0.00932611 
C154     C      0.281970000000     0.013010000000     0.238300000000    -0.0179807  
C155     C      0.223500000000     0.488270000000     0.268100000000    -0.00911677 
C156     C      0.264820000000     0.031560000000     0.264680000000    -0.00753855 
C157     C      0.284010000000     0.017020000000     0.986740000000    -0.0144441  
C158     C      0.224490000000     0.019100000000     0.987950000000    -0.0146078  
C159     C      0.283700000000     0.492850000000     0.014150000000    -0.0108416  
C160     C      0.224110000000     0.494870000000     0.015290000000    -0.0107055  
C161     C      0.227890000000     0.357730000000     0.145870000000    -0.00995864 
C162     C      0.287270000000     0.356350000000     0.147580000000    -0.0106887  
C163     C      0.229000000000     0.383830000000     0.120550000000    -0.0102181  
C164     C      0.288630000000     0.384170000000     0.123680000000    -0.011154   
C165     C      0.221430000000     0.135990000000     0.115570000000    -0.0108168  
C166     C      0.280580000000     0.136040000000     0.109790000000    -0.0102399  
C167     C      0.223500000000     0.106220000000     0.136850000000    -0.0110565  
C168     C      0.283060000000     0.107580000000     0.132320000000    -0.0102731  
C169     C      0.033270000000     0.218080000000     0.246480000000    -0.00969935 
C170     C      0.488920000000     0.258380000000     0.244600000000    -0.00930852 
C171     C      0.018030000000     0.202660000000     0.276080000000    -0.00679495 
C172     C      0.474990000000     0.244390000000     0.275210000000    -0.00927689 
C173     C      0.031930000000     0.260830000000     0.995550000000    -0.0100096  
C174     C      0.472310000000     0.259310000000     0.997040000000    -0.0103404  
C175     C      0.033110000000     0.234290000000     0.020710000000    -0.0106775  
C176     C      0.473680000000     0.232770000000     0.022180000000    -0.0109858  
C177     C      0.481990000000     0.008260000000     0.230580000000    -0.0179111  
C178     C      0.026440000000     0.467880000000     0.232770000000    -0.00941067 
C179     C      0.498650000000     0.027860000000     0.256540000000    -0.00772089 
C180     C      0.040780000000     0.485610000000     0.261380000000    -0.00888339 
C181     C      0.031080000000     0.009950000000     0.984780000000    -0.0139166  
C182     C      0.471460000000     0.006430000000     0.985500000000    -0.0142936  
C183     C      0.032930000000     0.481190000000     0.007130000000    -0.0103359  
C184     C      0.473640000000     0.477830000000     0.008080000000    -0.010632   
C185     C      0.474950000000     0.372240000000     0.120390000000    -0.010544   
C186     C      0.034550000000     0.372500000000     0.116530000000    -0.0102345  
C187     C      0.476780000000     0.344180000000     0.143600000000    -0.0100957  
C188     C      0.036190000000     0.344570000000     0.139910000000    -0.00987326 
C189     C      0.035180000000     0.094880000000     0.112020000000    -0.00995984 
C190     C      0.975650000000     0.095250000000     0.111930000000    -0.012445   
C191     C      0.535340000000     0.121470000000     0.137010000000    -0.0103412  
C192     C      0.475680000000     0.121800000000     0.137010000000    -0.0102428  
C193     C      0.005360000000     0.986670000000     0.181090000000     0.434659   
C194     C      0.004060000000     0.480800000000     0.058980000000     0.4351     
C195     C      0.504770000000     0.923040000000     0.121930000000     0.430617   
C196     C      0.505100000000     0.544340000000     0.116760000000     0.430207   
C197     C      0.007950000000     0.733060000000     0.195320000000     0.433551   
C198     C      0.004640000000     0.733870000000     0.072920000000     0.43157    
C199     C      0.005800000000     0.672430000000     0.134200000000     0.434188   
C200     C      0.006460000000     0.793830000000     0.135860000000     0.433937   
C201     C      0.254310000000     0.556320000000     0.129220000000     0.427623   
C202     C      0.258020000000     0.934820000000     0.125320000000     0.429129   
C203     C      0.257810000000     0.494030000000     0.188160000000     0.429991   
C204     C      0.254950000000     0.496580000000     0.065930000000     0.429033   
C205     C      0.252160000000     0.686170000000     0.122220000000     0.428317   
C206     C      0.256280000000     0.806510000000     0.139420000000     0.428645   
C207     C      0.254550000000     0.755010000000     0.070320000000     0.428412   
C208     C      0.253410000000     0.738960000000     0.191600000000     0.429486   
C209     C      0.999630000000     0.955440000000     0.868650000000     0.423644   
C210     C      0.999970000000     0.576670000000     0.878400000000     0.424183   
C211     C      0.000510000000     0.511590000000     0.934000000000     0.434955   
C212     C      0.999610000000     0.520310000000     0.812110000000     0.426786   
C213     C      0.999700000000     0.828270000000     0.888860000000     0.421713   
C214     C      0.998690000000     0.707180000000     0.877720000000     0.423768   
C215     C      0.000800000000     0.762400000000     0.944990000000     0.431367   
C216     C      0.997240000000     0.772360000000     0.822970000000     0.425475   
C217     C      0.249820000000     0.014770000000     0.813850000000     0.428785   
C218     C      0.253100000000     0.014570000000     0.936160000000     0.427866   
C219     C      0.249970000000     0.575150000000     0.875830000000     0.427921   
C220     C      0.253440000000     0.953530000000     0.874520000000     0.426754   
C221     C      0.253750000000     0.773520000000     0.818620000000     0.43054    
C222     C      0.253940000000     0.754870000000     0.939470000000     0.428833   
C223     C      0.251420000000     0.704810000000     0.868970000000     0.428008   
C224     C      0.255880000000     0.824820000000     0.888550000000     0.428334   
C225     C      0.446400000000     0.004810000000     0.362130000000     0.423045   
C226     C      0.066770000000     0.008830000000     0.376150000000     0.422666   
C227     C      0.999410000000     0.007000000000     0.431050000000     0.413559   
C228     C      0.013570000000     0.006440000000     0.309350000000     0.424361   
C229     C      0.999100000000     0.728040000000     0.325860000000     0.425116   
C230     C      0.984630000000     0.734210000000     0.447150000000     0.427974   
C231     C      0.052690000000     0.731720000000     0.394360000000     0.427957   
C232     C      0.432530000000     0.730130000000     0.377960000000     0.428547   
C233     C      0.262880000000     0.507180000000     0.438180000000     0.431778   
C234     C      0.249840000000     0.508630000000     0.316780000000     0.431131   
C235     C      0.316810000000     0.505600000000     0.371630000000     0.427901   
C236     C      0.196400000000     0.510140000000     0.385110000000     0.428536   
C237     C      0.302800000000     0.730240000000     0.382430000000     0.428425   
C238     C      0.181520000000     0.729970000000     0.381790000000     0.42768    
C239     C      0.241640000000     0.726810000000     0.320880000000     0.429786   
C240     C      0.243120000000     0.733270000000     0.443050000000     0.428704   
C241     C      0.003240000000     0.506200000000     0.562750000000     0.426419   
C242     C      0.988250000000     0.504740000000     0.684280000000     0.429277   
C243     C      0.435470000000     0.503380000000     0.617290000000     0.428634   
C244     C      0.055530000000     0.507490000000     0.632690000000     0.428048   
C245     C      0.041620000000     0.746530000000     0.646290000000     0.428169   
C246     C      0.421400000000     0.744920000000     0.630060000000     0.427911   
C247     C      0.974840000000     0.749190000000     0.698880000000     0.428551   
C248     C      0.489430000000     0.741960000000     0.577590000000     0.428411   
C249     C      0.253480000000     0.003190000000     0.683770000000     0.42494    
C250     C      0.238240000000     0.005360000000     0.562570000000     0.426554   
C251     C      0.185560000000     0.006550000000     0.629730000000     0.423568   
C252     C      0.305570000000     0.002130000000     0.614000000000     0.424346   
C253     C      0.230530000000     0.750320000000     0.695470000000     0.430787   
C254     C      0.230410000000     0.741760000000     0.573500000000     0.429255   
C255     C      0.170120000000     0.745670000000     0.633910000000     0.428697   
C256     C      0.291410000000     0.746180000000     0.635630000000     0.427483   
C257     C      0.341960000000     0.776250000000     0.638570000000    -0.0107031  
C258     C      0.341600000000     0.716580000000     0.644100000000    -0.0107122  
C259     C      0.371560000000     0.773880000000     0.617450000000    -0.0107039  
C260     C      0.371310000000     0.714530000000     0.623110000000    -0.0105713  
C261     C      0.091840000000     0.776960000000     0.651740000000    -0.0103333  
C262     C      0.091920000000     0.717610000000     0.656970000000    -0.010287   
C263     C      0.119410000000     0.775040000000     0.627950000000    -0.0107626  
C264     C      0.119610000000     0.715350000000     0.633370000000    -0.0106248  
C265     C      0.354630000000     0.971000000000     0.603350000000    -0.00783572 
C266     C      0.354740000000     0.530170000000     0.598020000000    -0.0100585  
C267     C      0.385810000000     0.972360000000     0.622260000000    -0.00866782 
C268     C      0.384730000000     0.532480000000     0.618200000000    -0.0101499  
C269     C      0.136040000000     0.538210000000     0.627610000000    -0.0112532  
C270     C      0.134720000000     0.977970000000     0.626000000000    -0.00784262 
C271     C      0.104460000000     0.537910000000     0.646010000000    -0.0104079  
C272     C      0.104780000000     0.978520000000     0.646310000000    -0.00729985 
C273     C      0.247120000000     0.706170000000     0.495760000000    -0.0106403  
C274     C      0.249390000000     0.765790000000     0.492220000000    -0.0103615  
C275     C      0.224710000000     0.708730000000     0.524520000000    -0.0105656  
C276     C      0.226640000000     0.768370000000     0.520610000000    -0.0104452  
C277     C      0.235750000000     0.476350000000     0.510890000000    -0.00996587 
C278     C      0.235600000000     0.535980000000     0.511810000000    -0.0101347  
C279     C      0.264880000000     0.976710000000     0.489040000000    -0.00768636 
C280     C      0.264650000000     0.036400000000     0.489820000000    -0.0104829  
C281     C      0.998210000000     0.768580000000     0.525200000000    -0.0149954  
C282     C      0.497620000000     0.708940000000     0.528880000000    -0.0105899  
C283     C      0.976350000000     0.766970000000     0.495970000000    -0.00934683 
C284     C      0.475940000000     0.707320000000     0.499460000000    -0.0107052  
C285     C      0.353010000000     0.760700000000     0.385850000000    -0.0107292  
C286     C      0.353170000000     0.700860000000     0.390200000000    -0.0107221  
C287     C      0.382790000000     0.759020000000     0.365010000000    -0.0102428  
C288     C      0.382870000000     0.699580000000     0.369190000000    -0.0103223  
C289     C      0.131040000000     0.759800000000     0.376010000000    -0.0106968  
C290     C      0.130720000000     0.700110000000     0.381210000000    -0.0105895  
C291     C      0.103160000000     0.761910000000     0.399410000000    -0.0105501  
C292     C      0.102950000000     0.702560000000     0.404730000000    -0.0106561  
C293     C      0.491620000000     0.536930000000     0.481880000000    -0.0109026  
C294     C      0.490660000000     0.977190000000     0.481710000000    -0.00843001 
C295     C      0.012100000000     0.536480000000     0.512290000000    -0.00754612 
C296     C      0.511510000000     0.976760000000     0.511780000000    -0.00831314 
C297     C      0.367900000000     0.034160000000     0.373870000000    -0.010918   
C298     C      0.366580000000     0.974030000000     0.372460000000    -0.00888037 
C299     C      0.396330000000     0.533710000000     0.351400000000    -0.00976839 
C300     C      0.396770000000     0.474270000000     0.351780000000    -0.0106591  
C301     C      0.117630000000     0.979740000000     0.376660000000    -0.00784982 
C302     C      0.116720000000     0.539730000000     0.372200000000    -0.0111307  
C303     C      0.146440000000     0.982140000000     0.398580000000    -0.00771289 
C304     C      0.146780000000     0.541310000000     0.392910000000    -0.0104665  
C305     C      0.230560000000     0.795470000000     0.768800000000    -0.00847346 
C306     C      0.274670000000     0.755150000000     0.766920000000    -0.0104061  
C307     C      0.211200000000     0.775310000000     0.745310000000    -0.00887663 
C308     C      0.253950000000     0.733110000000     0.746480000000    -0.00931162 
C309     C      0.224750000000     0.996230000000     0.764010000000    -0.00134021 
C310     C      0.268130000000     0.537720000000     0.762810000000    -0.00981247 
C311     C      0.240500000000     0.979050000000     0.735890000000    -0.00843746 
C312     C      0.281180000000     0.522850000000     0.731960000000    -0.00940956 
C313     C      0.224740000000     0.902080000000     0.874880000000    -0.0104775  
C314     C      0.284280000000     0.903270000000     0.869690000000    -0.0112196  
C315     C      0.227580000000     0.875420000000     0.899550000000    -0.0102541  
C316     C      0.286610000000     0.875270000000     0.893280000000    -0.0107084  
C317     C      0.220370000000     0.655520000000     0.858170000000    -0.0107046  
C318     C      0.279720000000     0.654160000000     0.858750000000    -0.00993594 
C319     C      0.219380000000     0.625640000000     0.879400000000    -0.0112159  
C320     C      0.279160000000     0.625870000000     0.881560000000    -0.0104798  
C321     C      0.454550000000     0.774760000000     0.748290000000    -0.00916087 
C322     C      0.494420000000     0.730050000000     0.750880000000    -0.0100101  
C323     C      0.974160000000     0.793560000000     0.772800000000    -0.00864144 
C324     C      0.016080000000     0.750710000000     0.771760000000    -0.00282603 
C325     C      0.477890000000     0.542230000000     0.761750000000    -0.00951422 
C326     C      0.022640000000     0.002200000000     0.761190000000    -0.018397   
C327     C      0.462440000000     0.524940000000     0.733400000000    -0.00899915 
C328     C      0.004800000000     0.982620000000     0.736120000000     0.00540483 
C329     C      0.470430000000     0.879410000000     0.893230000000    -0.0105996  
C330     C      0.029910000000     0.879020000000     0.891010000000    -0.0110566  
C331     C      0.469570000000     0.904620000000     0.866730000000    -0.0106241  
C332     C      0.029090000000     0.904380000000     0.864670000000    -0.00796769 
C333     C      0.968820000000     0.656990000000     0.869330000000    -0.0108231  
C334     C      0.028300000000     0.657520000000     0.866090000000    -0.00852528 
C335     C      0.470250000000     0.626450000000     0.889230000000    -0.0106586  
C336     C      0.529800000000     0.626980000000     0.885940000000    -0.0105885  
C337     C      0.275500000000     0.718050000000     0.242260000000    -0.00946745 
C338     C      0.233560000000     0.761000000000     0.242060000000    -0.00941142 
C339     C      0.258190000000     0.701490000000     0.270090000000    -0.00971056 
C340     C      0.217450000000     0.745360000000     0.270700000000    -0.00873261 
C341     C      0.224820000000     0.765280000000     0.020030000000    -0.0107008  
C342     C      0.284420000000     0.764460000000     0.019890000000    -0.0108861  
C343     C      0.224410000000     0.744570000000     0.989900000000    -0.0102822  
C344     C      0.283960000000     0.743990000000     0.989530000000    -0.0102286  
C345     C      0.238450000000     0.971670000000     0.239160000000    -0.0113828  
C346     C      0.281970000000     0.513010000000     0.238300000000    -0.00940996 
C347     C      0.223500000000     0.988270000000     0.268100000000    -0.000775508
C348     C      0.264820000000     0.531560000000     0.264680000000    -0.00949529 
C349     C      0.284010000000     0.517020000000     0.986740000000    -0.0101815  
C350     C      0.224490000000     0.519100000000     0.987950000000    -0.0103414  
C351     C      0.283700000000     0.992850000000     0.014150000000    -0.00655387 
C352     C      0.224110000000     0.994870000000     0.015290000000    -0.00641633 
C353     C      0.227890000000     0.857730000000     0.145870000000    -0.00997706 
C354     C      0.287270000000     0.856350000000     0.147580000000    -0.0107077  
C355     C      0.229000000000     0.883830000000     0.120550000000    -0.010224   
C356     C      0.288630000000     0.884170000000     0.123680000000    -0.011161   
C357     C      0.221430000000     0.635990000000     0.115570000000    -0.0107886  
C358     C      0.280580000000     0.636040000000     0.109790000000    -0.0102159  
C359     C      0.223500000000     0.606220000000     0.136850000000    -0.0110848  
C360     C      0.283060000000     0.607580000000     0.132320000000    -0.0103001  
C361     C      0.033270000000     0.718080000000     0.246480000000    -0.00975176 
C362     C      0.488920000000     0.758380000000     0.244600000000    -0.00933154 
C363     C      0.018030000000     0.702670000000     0.276080000000    -0.00669927 
C364     C      0.474990000000     0.744390000000     0.275210000000    -0.00925682 
C365     C      0.031930000000     0.760830000000     0.995550000000    -0.00998603 
C366     C      0.472310000000     0.759310000000     0.997040000000    -0.0103286  
C367     C      0.033110000000     0.734290000000     0.020710000000    -0.0107097  
C368     C      0.473680000000     0.732780000000     0.022180000000    -0.0109801  
C369     C      0.481990000000     0.508260000000     0.230580000000    -0.00936074 
C370     C      0.026440000000     0.967880000000     0.232770000000    -0.0114441  
C371     C      0.498650000000     0.527860000000     0.256540000000    -0.00965611 
C372     C      0.040780000000     0.985610000000     0.261380000000    -0.000578835
C373     C      0.031080000000     0.509950000000     0.984780000000    -0.00966122 
C374     C      0.471460000000     0.506430000000     0.985500000000    -0.0100104  
C375     C      0.032930000000     0.981190000000     0.007130000000    -0.00610265 
C376     C      0.473640000000     0.977830000000     0.008080000000    -0.00638349 
C377     C      0.474950000000     0.872240000000     0.120390000000    -0.0105499  
C378     C      0.034550000000     0.872510000000     0.116530000000    -0.0102171  
C379     C      0.476780000000     0.844180000000     0.143600000000    -0.0101033  
C380     C      0.036190000000     0.844570000000     0.139910000000    -0.00989343 
C381     C      0.035180000000     0.594880000000     0.112020000000    -0.00999257 
C382     C      0.975650000000     0.595250000000     0.111930000000    -0.0124695  
C383     C      0.535340000000     0.621470000000     0.137010000000    -0.0103284  
C384     C      0.475680000000     0.621790000000     0.137010000000    -0.0102557  
C385     C      0.505360000000     0.486670000000     0.181090000000     0.429778   
C386     C      0.504070000000     0.980810000000     0.058980000000     0.431885   
C387     C      0.004770000000     0.423040000000     0.121930000000     0.434199   
C388     C      0.005100000000     0.044340000000     0.116760000000     0.434948   
C389     C      0.507950000000     0.233060000000     0.195320000000     0.429623   
C390     C      0.504640000000     0.233870000000     0.072920000000     0.427409   
C391     C      0.505800000000     0.172430000000     0.134200000000     0.430034   
C392     C      0.506460000000     0.293830000000     0.135860000000     0.429904   
C393     C      0.754300000000     0.056320000000     0.129220000000     0.428222   
C394     C      0.758020000000     0.434820000000     0.125320000000     0.428853   
C395     C      0.757810000000     0.994030000000     0.188160000000     0.430489   
C396     C      0.754950000000     0.996580000000     0.065930000000     0.429944   
C397     C      0.752160000000     0.186180000000     0.122220000000     0.428544   
C398     C      0.756280000000     0.306520000000     0.139420000000     0.428577   
C399     C      0.754550000000     0.255010000000     0.070320000000     0.428433   
C400     C      0.753410000000     0.238960000000     0.191600000000     0.429509   
C401     C      0.499620000000     0.455440000000     0.868650000000     0.428297   
C402     C      0.499970000000     0.076670000000     0.878400000000     0.428032   
C403     C      0.500510000000     0.011590000000     0.934000000000     0.429752   
C404     C      0.499610000000     0.020310000000     0.812110000000     0.429744   
C405     C      0.499700000000     0.328270000000     0.888860000000     0.428416   
C406     C      0.498690000000     0.207180000000     0.877720000000     0.427977   
C407     C      0.500800000000     0.262400000000     0.944990000000     0.42739    
C408     C      0.497240000000     0.272360000000     0.822970000000     0.429402   
C409     C      0.749820000000     0.514770000000     0.813850000000     0.429315   
C410     C      0.753100000000     0.514570000000     0.936160000000     0.428746   
C411     C      0.749970000000     0.075150000000     0.875830000000     0.427915   
C412     C      0.753440000000     0.453530000000     0.874520000000     0.42735    
C413     C      0.753750000000     0.273520000000     0.818620000000     0.430555   
C414     C      0.753940000000     0.254870000000     0.939470000000     0.429107   
C415     C      0.751430000000     0.204810000000     0.868970000000     0.42804    
C416     C      0.755880000000     0.324820000000     0.888550000000     0.428087   
C417     C      0.946400000000     0.504810000000     0.362130000000     0.428705   
C418     C      0.566770000000     0.508830000000     0.376150000000     0.427473   
C419     C      0.499410000000     0.507000000000     0.431050000000     0.426514   
C420     C      0.513570000000     0.506440000000     0.309350000000     0.429114   
C421     C      0.499100000000     0.228040000000     0.325860000000     0.42986    
C422     C      0.484620000000     0.234210000000     0.447150000000     0.428643   
C423     C      0.552690000000     0.231720000000     0.394360000000     0.428657   
C424     C      0.932530000000     0.230130000000     0.377960000000     0.428266   
C425     C      0.762880000000     0.007180000000     0.438180000000     0.426655   
C426     C      0.749840000000     0.008630000000     0.316780000000     0.426237   
C427     C      0.816810000000     0.005600000000     0.371630000000     0.422771   
C428     C      0.696400000000     0.010140000000     0.385110000000     0.423443   
C429     C      0.802800000000     0.230240000000     0.382430000000     0.428505   
C430     C      0.681530000000     0.229970000000     0.381790000000     0.427778   
C431     C      0.741650000000     0.226810000000     0.320880000000     0.429535   
C432     C      0.743120000000     0.233270000000     0.443050000000     0.428716   
C433     C      0.503240000000     0.006200000000     0.562750000000     0.421707   
C434     C      0.488250000000     0.004740000000     0.684280000000     0.42501    
C435     C      0.935470000000     0.003380000000     0.617290000000     0.422703   
C436     C      0.555520000000     0.007490000000     0.632690000000     0.423808   
C437     C      0.541620000000     0.246530000000     0.646290000000     0.428644   
C438     C      0.921400000000     0.244920000000     0.630060000000     0.427711   
C439     C      0.474840000000     0.249190000000     0.698880000000     0.429416   
C440     C      0.989440000000     0.241960000000     0.577590000000     0.427634   
C441     C      0.753480000000     0.503190000000     0.683770000000     0.430078   
C442     C      0.738240000000     0.505360000000     0.562570000000     0.431685   
C443     C      0.685560000000     0.506550000000     0.629730000000     0.428678   
C444     C      0.805570000000     0.502130000000     0.614000000000     0.429463   
C445     C      0.730530000000     0.250320000000     0.695470000000     0.430802   
C446     C      0.730410000000     0.241760000000     0.573500000000     0.429282   
C447     C      0.670120000000     0.245670000000     0.633910000000     0.428703   
C448     C      0.791400000000     0.246180000000     0.635630000000     0.427607   
C449     C      0.841950000000     0.276250000000     0.638570000000    -0.0106733  
C450     C      0.841600000000     0.216580000000     0.644100000000    -0.0107085  
C451     C      0.871560000000     0.273880000000     0.617450000000    -0.0106976  
C452     C      0.871310000000     0.214530000000     0.623110000000    -0.0105523  
C453     C      0.591840000000     0.276960000000     0.651740000000    -0.0103065  
C454     C      0.591920000000     0.217610000000     0.656970000000    -0.0102599  
C455     C      0.619410000000     0.275040000000     0.627950000000    -0.0107562  
C456     C      0.619610000000     0.215350000000     0.633370000000    -0.0106178  
C457     C      0.854630000000     0.471000000000     0.603350000000    -0.0102834  
C458     C      0.854740000000     0.030170000000     0.598020000000    -0.0103815  
C459     C      0.885810000000     0.472360000000     0.622260000000    -0.0110902  
C460     C      0.884730000000     0.032480000000     0.618200000000    -0.0105975  
C461     C      0.636040000000     0.038200000000     0.627610000000    -0.0115113  
C462     C      0.634720000000     0.477970000000     0.626000000000    -0.0102788  
C463     C      0.604460000000     0.037920000000     0.646010000000    -0.0109163  
C464     C      0.604780000000     0.478520000000     0.646310000000    -0.00964325 
C465     C      0.747120000000     0.206170000000     0.495760000000    -0.0106353  
C466     C      0.749390000000     0.265790000000     0.492220000000    -0.0104053  
C467     C      0.724710000000     0.208730000000     0.524520000000    -0.0105285  
C468     C      0.726640000000     0.268360000000     0.520610000000    -0.0102947  
C469     C      0.735750000000     0.976340000000     0.510890000000    -0.00765779 
C470     C      0.735600000000     0.035980000000     0.511810000000    -0.0104711  
C471     C      0.764880000000     0.476710000000     0.489040000000    -0.0101271  
C472     C      0.764650000000     0.536400000000     0.489820000000    -0.0101182  
C473     C      0.498200000000     0.268580000000     0.525200000000    -0.0106082  
C474     C      0.997620000000     0.208950000000     0.528880000000    -0.0147945  
C475     C      0.476350000000     0.266970000000     0.495970000000    -0.0104404  
C476     C      0.975940000000     0.207320000000     0.499460000000    -0.00962957 
C477     C      0.853010000000     0.260700000000     0.385850000000    -0.0107133  
C478     C      0.853170000000     0.200860000000     0.390200000000    -0.0107076  
C479     C      0.882790000000     0.259020000000     0.365010000000    -0.010218   
C480     C      0.882870000000     0.199580000000     0.369190000000    -0.0103175  
C481     C      0.631040000000     0.259800000000     0.376010000000    -0.0107321  
C482     C      0.630720000000     0.200110000000     0.381210000000    -0.0106243  
C483     C      0.603160000000     0.261910000000     0.399410000000    -0.0104744  
C484     C      0.602950000000     0.202560000000     0.404730000000    -0.0105454  
C485     C      0.991620000000     0.036930000000     0.481880000000    -0.0150108  
C486     C      0.990660000000     0.477190000000     0.481710000000    -0.0145766  
C487     C      0.512100000000     0.036480000000     0.512290000000    -0.0113766  
C488     C      0.011510000000     0.476760000000     0.511780000000    -0.00729223 
C489     C      0.867900000000     0.534160000000     0.373870000000    -0.0105384  
C490     C      0.866580000000     0.474030000000     0.372460000000    -0.0113117  
C491     C      0.896330000000     0.033710000000     0.351400000000    -0.0100769  
C492     C      0.896770000000     0.974270000000     0.351780000000    -0.00819234 
C493     C      0.617630000000     0.479740000000     0.376660000000    -0.0102852  
C494     C      0.616720000000     0.039730000000     0.372200000000    -0.0115672  
C495     C      0.646440000000     0.482140000000     0.398580000000    -0.0101014  
C496     C      0.646790000000     0.041310000000     0.392910000000    -0.0108249  
C497     C      0.730560000000     0.295470000000     0.768800000000    -0.00840268 
C498     C      0.774670000000     0.255150000000     0.766920000000    -0.01037    
C499     C      0.711190000000     0.275310000000     0.745310000000    -0.00897175 
C500     C      0.753950000000     0.233110000000     0.746480000000    -0.00932839 
C501     C      0.724750000000     0.496230000000     0.764010000000    -0.00921808 
C502     C      0.768130000000     0.037720000000     0.762810000000    -0.0098152  
C503     C      0.740500000000     0.479050000000     0.735890000000    -0.00940891 
C504     C      0.781180000000     0.022860000000     0.731960000000    -0.00990946 
C505     C      0.724740000000     0.402080000000     0.874880000000    -0.0104389  
C506     C      0.784280000000     0.403270000000     0.869690000000    -0.0111747  
C507     C      0.727580000000     0.375420000000     0.899550000000    -0.0102673  
C508     C      0.786610000000     0.375270000000     0.893280000000    -0.0107303  
C509     C      0.720370000000     0.155520000000     0.858170000000    -0.0107044  
C510     C      0.779720000000     0.154160000000     0.858750000000    -0.00989796 
C511     C      0.719380000000     0.125630000000     0.879400000000    -0.0111739  
C512     C      0.779160000000     0.125870000000     0.881560000000    -0.0104613  
C513     C      0.954550000000     0.274760000000     0.748290000000    -0.00964106 
C514     C      0.994420000000     0.230050000000     0.750880000000    -0.0179105  
C515     C      0.474160000000     0.293560000000     0.772800000000    -0.00878278 
C516     C      0.516070000000     0.250710000000     0.771760000000    -0.00961921 
C517     C      0.977900000000     0.042220000000     0.761750000000    -0.0102758  
C518     C      0.522640000000     0.502200000000     0.761190000000    -0.00934297 
C519     C      0.962440000000     0.024950000000     0.733400000000    -0.00896242 
C520     C      0.504800000000     0.482620000000     0.736120000000    -0.00945801 
C521     C      0.970430000000     0.379410000000     0.893230000000    -0.0134747  
C522     C      0.529910000000     0.379020000000     0.891010000000    -0.0104119  
C523     C      0.969570000000     0.404620000000     0.866730000000    -0.0102975  
C524     C      0.529090000000     0.404380000000     0.864670000000    -0.0106089  
C525     C      0.468820000000     0.156990000000     0.869330000000    -0.0104993  
C526     C      0.528300000000     0.157520000000     0.866090000000    -0.0104483  
C527     C      0.970240000000     0.126450000000     0.889230000000    -0.0110483  
C528     C      0.029800000000     0.126980000000     0.885940000000    -0.00859267 
C529     C      0.775500000000     0.218050000000     0.242260000000    -0.00944246 
C530     C      0.733560000000     0.261000000000     0.242060000000    -0.00939571 
C531     C      0.758190000000     0.201490000000     0.270090000000    -0.00971487 
C532     C      0.717450000000     0.245360000000     0.270700000000    -0.00871341 
C533     C      0.724820000000     0.265280000000     0.020030000000    -0.0106663  
C534     C      0.784420000000     0.264460000000     0.019890000000    -0.0107888  
C535     C      0.724410000000     0.244570000000     0.989900000000    -0.0102412  
C536     C      0.783970000000     0.243990000000     0.989530000000    -0.0103501  
C537     C      0.738440000000     0.471670000000     0.239160000000    -0.0093774  
C538     C      0.781970000000     0.013010000000     0.238300000000    -0.0179674  
C539     C      0.723500000000     0.488270000000     0.268100000000    -0.00908212 
C540     C      0.764820000000     0.031560000000     0.264680000000    -0.00753309 
C541     C      0.784020000000     0.017020000000     0.986740000000    -0.0145733  
C542     C      0.724490000000     0.019100000000     0.987950000000    -0.0146193  
C543     C      0.783700000000     0.492850000000     0.014150000000    -0.0107655  
C544     C      0.724110000000     0.494870000000     0.015290000000    -0.0106773  
C545     C      0.727890000000     0.357730000000     0.145870000000    -0.00994669 
C546     C      0.787270000000     0.356350000000     0.147580000000    -0.0106916  
C547     C      0.729000000000     0.383830000000     0.120550000000    -0.0102202  
C548     C      0.788630000000     0.384170000000     0.123680000000    -0.0111068  
C549     C      0.721430000000     0.135990000000     0.115570000000    -0.0108039  
C550     C      0.780580000000     0.136040000000     0.109790000000    -0.0102225  
C551     C      0.723500000000     0.106220000000     0.136850000000    -0.0110591  
C552     C      0.783060000000     0.107580000000     0.132320000000    -0.0102922  
C553     C      0.533270000000     0.218080000000     0.246480000000    -0.00939512 
C554     C      0.988920000000     0.258380000000     0.244600000000    -0.0159631  
C555     C      0.518030000000     0.202660000000     0.276080000000    -0.00916228 
C556     C      0.974990000000     0.244390000000     0.275210000000    -0.00787575 
C557     C      0.531930000000     0.260830000000     0.995550000000    -0.0103739  
C558     C      0.972310000000     0.259310000000     0.997040000000    -0.0123393  
C559     C      0.533110000000     0.234290000000     0.020710000000    -0.0109638  
C560     C      0.973680000000     0.232770000000     0.022180000000    -0.012877   
C561     C      0.981990000000     0.008260000000     0.230580000000    -0.0186736  
C562     C      0.526440000000     0.467880000000     0.232770000000    -0.00977797 
C563     C      0.998660000000     0.027860000000     0.256540000000    -0.0139457  
C564     C      0.540780000000     0.485610000000     0.261380000000    -0.00890844 
C565     C      0.531080000000     0.009950000000     0.984780000000    -0.0143159  
C566     C      0.971460000000     0.006430000000     0.985500000000    -0.0162541  
C567     C      0.532920000000     0.481190000000     0.007130000000    -0.0104739  
C568     C      0.973640000000     0.477830000000     0.008080000000    -0.0125178  
C569     C      0.974950000000     0.372240000000     0.120390000000    -0.0124644  
C570     C      0.534550000000     0.372500000000     0.116530000000    -0.0105247  
C571     C      0.976780000000     0.344180000000     0.143600000000    -0.0120135  
C572     C      0.536190000000     0.344570000000     0.139910000000    -0.0101838  
C573     C      0.535180000000     0.094880000000     0.112020000000    -0.0102541  
C574     C      0.475650000000     0.095250000000     0.111930000000    -0.0105229  
C575     C      0.035340000000     0.121470000000     0.137010000000    -0.0100301  
C576     C      0.975680000000     0.121800000000     0.137010000000    -0.012169   
C577     C      0.505360000000     0.986670000000     0.181090000000     0.43026    
C578     C      0.504070000000     0.480800000000     0.058980000000     0.430959   
C579     C      0.004770000000     0.923040000000     0.121930000000     0.434475   
C580     C      0.005100000000     0.544340000000     0.116760000000     0.43436    
C581     C      0.507950000000     0.733060000000     0.195320000000     0.429613   
C582     C      0.504640000000     0.733870000000     0.072920000000     0.427404   
C583     C      0.505800000000     0.672430000000     0.134200000000     0.430033   
C584     C      0.506460000000     0.793830000000     0.135860000000     0.42977    
C585     C      0.754300000000     0.556320000000     0.129220000000     0.427631   
C586     C      0.758020000000     0.934820000000     0.125320000000     0.429144   
C587     C      0.757810000000     0.494030000000     0.188160000000     0.430001   
C588     C      0.754950000000     0.496580000000     0.065930000000     0.429049   
C589     C      0.752160000000     0.686170000000     0.122220000000     0.428331   
C590     C      0.756280000000     0.806510000000     0.139420000000     0.428657   
C591     C      0.754550000000     0.755010000000     0.070320000000     0.428428   
C592     C      0.753410000000     0.738960000000     0.191600000000     0.429499   
C593     C      0.499620000000     0.955440000000     0.868650000000     0.427725   
C594     C      0.499970000000     0.576670000000     0.878400000000     0.428318   
C595     C      0.500510000000     0.511590000000     0.934000000000     0.430649   
C596     C      0.499610000000     0.520310000000     0.812110000000     0.430835   
C597     C      0.499700000000     0.828270000000     0.888860000000     0.42842    
C598     C      0.498690000000     0.707180000000     0.877720000000     0.427966   
C599     C      0.500800000000     0.762400000000     0.944990000000     0.427388   
C600     C      0.497240000000     0.772360000000     0.822970000000     0.429396   
C601     C      0.749820000000     0.014770000000     0.813850000000     0.428802   
C602     C      0.753100000000     0.014570000000     0.936160000000     0.427879   
C603     C      0.749970000000     0.575150000000     0.875830000000     0.428195   
C604     C      0.753440000000     0.953530000000     0.874520000000     0.426771   
C605     C      0.753750000000     0.773520000000     0.818620000000     0.430553   
C606     C      0.753940000000     0.754870000000     0.939470000000     0.429104   
C607     C      0.751430000000     0.704810000000     0.868970000000     0.428029   
C608     C      0.755880000000     0.824820000000     0.888550000000     0.428091   
C609     C      0.946400000000     0.004810000000     0.362130000000     0.423585   
C610     C      0.566770000000     0.008830000000     0.376150000000     0.422358   
C611     C      0.499410000000     0.007000000000     0.431050000000     0.421401   
C612     C      0.513570000000     0.006440000000     0.309350000000     0.423956   
C613     C      0.499100000000     0.728040000000     0.325860000000     0.42982    
C614     C      0.484620000000     0.734210000000     0.447150000000     0.428597   
C615     C      0.552690000000     0.731720000000     0.394360000000     0.428609   
C616     C      0.932530000000     0.730130000000     0.377960000000     0.428221   
C617     C      0.762880000000     0.507180000000     0.438180000000     0.431779   
C618     C      0.749840000000     0.508630000000     0.316780000000     0.43114    
C619     C      0.816810000000     0.505600000000     0.371630000000     0.4279     
C620     C      0.696400000000     0.510140000000     0.385110000000     0.428546   
C621     C      0.802800000000     0.730240000000     0.382430000000     0.428495   
C622     C      0.681530000000     0.729970000000     0.381790000000     0.427766   
C623     C      0.741650000000     0.726810000000     0.320880000000     0.429783   
C624     C      0.743120000000     0.733270000000     0.443050000000     0.428704   
C625     C      0.503240000000     0.506200000000     0.562750000000     0.426826   
C626     C      0.488250000000     0.504740000000     0.684280000000     0.429934   
C627     C      0.935470000000     0.503380000000     0.617290000000     0.428063   
C628     C      0.555520000000     0.507490000000     0.632690000000     0.428946   
C629     C      0.541620000000     0.746530000000     0.646290000000     0.428628   
C630     C      0.921400000000     0.744920000000     0.630060000000     0.427695   
C631     C      0.474840000000     0.749190000000     0.698880000000     0.4294     
C632     C      0.989440000000     0.741960000000     0.577590000000     0.427614   
C633     C      0.753480000000     0.003190000000     0.683770000000     0.424948   
C634     C      0.738240000000     0.005360000000     0.562570000000     0.426555   
C635     C      0.685560000000     0.006550000000     0.629730000000     0.423562   
C636     C      0.805570000000     0.002130000000     0.614000000000     0.424358   
C637     C      0.730530000000     0.750320000000     0.695470000000     0.430787   
C638     C      0.730410000000     0.741760000000     0.573500000000     0.429261   
C639     C      0.670120000000     0.745670000000     0.633910000000     0.428686   
C640     C      0.791400000000     0.746180000000     0.635630000000     0.427591   
C641     C      0.841950000000     0.776250000000     0.638570000000    -0.0106883  
C642     C      0.841600000000     0.716580000000     0.644100000000    -0.0107188  
C643     C      0.871560000000     0.773880000000     0.617450000000    -0.010706   
C644     C      0.871310000000     0.714530000000     0.623110000000    -0.0105627  
C645     C      0.591840000000     0.776960000000     0.651740000000    -0.0103201  
C646     C      0.591920000000     0.717610000000     0.656970000000    -0.0102708  
C647     C      0.619410000000     0.775040000000     0.627950000000    -0.0107656  
C648     C      0.619610000000     0.715350000000     0.633370000000    -0.0106284  
C649     C      0.854630000000     0.971000000000     0.603350000000    -0.00783147 
C650     C      0.854740000000     0.530170000000     0.598020000000    -0.0100451  
C651     C      0.885810000000     0.972360000000     0.622260000000    -0.00869582 
C652     C      0.884730000000     0.532480000000     0.618200000000    -0.0101864  
C653     C      0.636040000000     0.538210000000     0.627610000000    -0.0112701  
C654     C      0.634720000000     0.977970000000     0.626000000000    -0.00785161 
C655     C      0.604460000000     0.537910000000     0.646010000000    -0.0103496  
C656     C      0.604780000000     0.978520000000     0.646310000000    -0.00723619 
C657     C      0.747120000000     0.706170000000     0.495760000000    -0.0106419  
C658     C      0.749390000000     0.765790000000     0.492220000000    -0.0103656  
C659     C      0.724710000000     0.708730000000     0.524520000000    -0.0105431  
C660     C      0.726640000000     0.768370000000     0.520610000000    -0.0104262  
C661     C      0.735750000000     0.476350000000     0.510890000000    -0.00995533 
C662     C      0.735600000000     0.535980000000     0.511810000000    -0.0101242  
C663     C      0.764880000000     0.976710000000     0.489040000000    -0.00767841 
C664     C      0.764650000000     0.036400000000     0.489820000000    -0.0104761  
C665     C      0.498200000000     0.768580000000     0.525200000000    -0.010621   
C666     C      0.997620000000     0.708940000000     0.528880000000    -0.0149134  
C667     C      0.476350000000     0.766970000000     0.495970000000    -0.0104504  
C668     C      0.975940000000     0.707320000000     0.499460000000    -0.00963348 
C669     C      0.853010000000     0.760700000000     0.385850000000    -0.0107234  
C670     C      0.853170000000     0.700860000000     0.390200000000    -0.0107181  
C671     C      0.882790000000     0.759020000000     0.365010000000    -0.0102293  
C672     C      0.882870000000     0.699580000000     0.369190000000    -0.0103196  
C673     C      0.631040000000     0.759800000000     0.376010000000    -0.0107372  
C674     C      0.630720000000     0.700110000000     0.381210000000    -0.0106207  
C675     C      0.603160000000     0.761910000000     0.399410000000    -0.0105026  
C676     C      0.602950000000     0.702560000000     0.404730000000    -0.0106009  
C677     C      0.991620000000     0.536930000000     0.481880000000    -0.0146241  
C678     C      0.990660000000     0.977190000000     0.481710000000    -0.012155   
C679     C      0.512100000000     0.536480000000     0.512290000000    -0.0109909  
C680     C      0.011510000000     0.976760000000     0.511780000000    -0.00488276 
C681     C      0.867900000000     0.034160000000     0.373870000000    -0.0109273  
C682     C      0.866580000000     0.974030000000     0.372460000000    -0.00889528 
C683     C      0.896330000000     0.533710000000     0.351400000000    -0.00972942 
C684     C      0.896770000000     0.474270000000     0.351780000000    -0.0106184  
C685     C      0.617630000000     0.979740000000     0.376660000000    -0.00785703 
C686     C      0.616720000000     0.539730000000     0.372200000000    -0.0111681  
C687     C      0.646440000000     0.982140000000     0.398580000000    -0.00769898 
C688     C      0.646790000000     0.541310000000     0.392910000000    -0.010429   
C689     C      0.730560000000     0.795470000000     0.768800000000    -0.0084257  
C690     C      0.774670000000     0.755150000000     0.766920000000    -0.0103833  
C691     C      0.711190000000     0.775310000000     0.745310000000    -0.00897165 
C692     C      0.753950000000     0.733110000000     0.746480000000    -0.00933529 
C693     C      0.724750000000     0.996230000000     0.764010000000    -0.00131988 
C694     C      0.768130000000     0.537720000000     0.762810000000    -0.00980271 
C695     C      0.740500000000     0.979050000000     0.735890000000    -0.00843388 
C696     C      0.781180000000     0.522850000000     0.731960000000    -0.00940258 
C697     C      0.724740000000     0.902080000000     0.874880000000    -0.0104629  
C698     C      0.784280000000     0.903270000000     0.869690000000    -0.0112078  
C699     C      0.727580000000     0.875420000000     0.899550000000    -0.010257   
C700     C      0.786610000000     0.875270000000     0.893280000000    -0.0107113  
C701     C      0.720370000000     0.655520000000     0.858170000000    -0.0106976  
C702     C      0.779720000000     0.654160000000     0.858750000000    -0.00990078 
C703     C      0.719380000000     0.625640000000     0.879400000000    -0.0111962  
C704     C      0.779160000000     0.625870000000     0.881560000000    -0.010472   
C705     C      0.954550000000     0.774760000000     0.748290000000    -0.00964252 
C706     C      0.994420000000     0.730050000000     0.750880000000    -0.0179187  
C707     C      0.474160000000     0.793560000000     0.772800000000    -0.00880466 
C708     C      0.516070000000     0.750710000000     0.771760000000    -0.0096313  
C709     C      0.977900000000     0.542230000000     0.761750000000    -0.00979998 
C710     C      0.522640000000     0.002200000000     0.761190000000    -0.0192445  
C711     C      0.962440000000     0.524940000000     0.733400000000    -0.00906206 
C712     C      0.504800000000     0.982620000000     0.736120000000    -0.000910995
C713     C      0.970430000000     0.879410000000     0.893230000000    -0.0134622  
C714     C      0.529910000000     0.879020000000     0.891010000000    -0.0104075  
C715     C      0.969570000000     0.904620000000     0.866730000000    -0.0103153  
C716     C      0.529090000000     0.904380000000     0.864670000000    -0.0106257  
C717     C      0.468820000000     0.656990000000     0.869330000000    -0.010502   
C718     C      0.528300000000     0.657520000000     0.866090000000    -0.0104513  
C719     C      0.970240000000     0.626450000000     0.889230000000    -0.0110608  
C720     C      0.029800000000     0.626980000000     0.885940000000    -0.00860202 
C721     C      0.775500000000     0.718050000000     0.242260000000    -0.00945248 
C722     C      0.733560000000     0.761000000000     0.242060000000    -0.00940796 
C723     C      0.758190000000     0.701490000000     0.270090000000    -0.00971722 
C724     C      0.717450000000     0.745360000000     0.270700000000    -0.00871431 
C725     C      0.724820000000     0.765280000000     0.020030000000    -0.0106915  
C726     C      0.784420000000     0.764460000000     0.019890000000    -0.0108141  
C727     C      0.724410000000     0.744570000000     0.989900000000    -0.0102362  
C728     C      0.783970000000     0.743990000000     0.989530000000    -0.010345   
C729     C      0.738440000000     0.971670000000     0.239160000000    -0.0114362  
C730     C      0.781970000000     0.513010000000     0.238300000000    -0.00939754 
C731     C      0.723500000000     0.988270000000     0.268100000000    -0.00073404 
C732     C      0.764820000000     0.531560000000     0.264680000000    -0.00948982 
C733     C      0.784020000000     0.517020000000     0.986740000000    -0.01031    
C734     C      0.724490000000     0.519100000000     0.987950000000    -0.0103508  
C735     C      0.783700000000     0.992850000000     0.014150000000    -0.00647708 
C736     C      0.724110000000     0.994870000000     0.015290000000    -0.00638528 
C737     C      0.727890000000     0.857730000000     0.145870000000    -0.00996513 
C738     C      0.787270000000     0.856350000000     0.147580000000    -0.0107107  
C739     C      0.729000000000     0.883830000000     0.120550000000    -0.0102261  
C740     C      0.788630000000     0.884170000000     0.123680000000    -0.0111138  
C741     C      0.721430000000     0.635990000000     0.115570000000    -0.0107756  
C742     C      0.780580000000     0.636040000000     0.109790000000    -0.0101984  
C743     C      0.723500000000     0.606220000000     0.136850000000    -0.0110874  
C744     C      0.783060000000     0.607580000000     0.132320000000    -0.0103193  
C745     C      0.533270000000     0.718080000000     0.246480000000    -0.00944675 
C746     C      0.988920000000     0.758380000000     0.244600000000    -0.0159829  
C747     C      0.518030000000     0.702670000000     0.276080000000    -0.0090671  
C748     C      0.974990000000     0.744390000000     0.275210000000    -0.00785704 
C749     C      0.531930000000     0.760830000000     0.995550000000    -0.0103501  
C750     C      0.972310000000     0.759310000000     0.997040000000    -0.0123264  
C751     C      0.533110000000     0.734290000000     0.020710000000    -0.0109958  
C752     C      0.973680000000     0.732780000000     0.022180000000    -0.0128705  
C753     C      0.981990000000     0.508260000000     0.230580000000    -0.0101549  
C754     C      0.526440000000     0.967880000000     0.232770000000    -0.0118166  
C755     C      0.998660000000     0.527860000000     0.256540000000    -0.0158911  
C756     C      0.540780000000     0.985610000000     0.261380000000    -0.000576126
C757     C      0.531080000000     0.509950000000     0.984780000000    -0.0100476  
C758     C      0.971460000000     0.506430000000     0.985500000000    -0.0119893  
C759     C      0.532920000000     0.981190000000     0.007130000000    -0.00622532 
C760     C      0.973640000000     0.977830000000     0.008080000000    -0.00827403 
C761     C      0.974950000000     0.872240000000     0.120390000000    -0.0124657  
C762     C      0.534550000000     0.872510000000     0.116530000000    -0.0105065  
C763     C      0.976780000000     0.844180000000     0.143600000000    -0.0120198  
C764     C      0.536190000000     0.844570000000     0.139910000000    -0.0102028  
C765     C      0.535180000000     0.594880000000     0.112020000000    -0.0102873  
C766     C      0.475650000000     0.595250000000     0.111930000000    -0.0105434  
C767     C      0.035340000000     0.621470000000     0.137010000000    -0.010017   
C768     C      0.975680000000     0.621790000000     0.137010000000    -0.0121826  
H1       H      0.349200000000     0.216540000000     0.669640000000     0.038904   
H2       H      0.349650000000     0.280850000000     0.663660000000     0.0395718  
H3       H      0.386010000000     0.295760000000     0.620760000000     0.0435598  
H4       H      0.327070000000     0.194870000000     0.640100000000     0.043311   
H5       H      0.385550000000     0.193570000000     0.630680000000     0.043007   
H6       H      0.363670000000     0.210530000000     0.597910000000     0.0390324  
H7       H      0.327630000000     0.296980000000     0.630520000000     0.0429247  
H8       H      0.363800000000     0.273110000000     0.591980000000     0.0389923  
H9       H      0.101860000000     0.218420000000     0.681670000000     0.0385189  
H10      H      0.101850000000     0.280470000000     0.676170000000     0.03865    
H11      H      0.134190000000     0.296800000000     0.630520000000     0.0434964  
H12      H      0.077220000000     0.195740000000     0.655020000000     0.0436302  
H13      H      0.134520000000     0.194520000000     0.639910000000     0.0435778  
H14      H      0.109750000000     0.210940000000     0.609030000000     0.0402781  
H15      H      0.077070000000     0.298090000000     0.645900000000     0.0433256  
H16      H      0.109430000000     0.274940000000     0.603260000000     0.040163   
H17      H      0.361780000000     0.028810000000     0.572350000000     0.0376155  
H18      H      0.360470000000     0.467220000000     0.577620000000     0.0379     
H19      H      0.400380000000     0.451270000000     0.615720000000     0.0431457  
H20      H      0.340630000000     0.052280000000     0.601270000000     0.0431873  
H21      H      0.398660000000     0.053310000000     0.609690000000     0.0432846  
H22      H      0.377820000000     0.037070000000     0.643520000000     0.039662   
H23      H      0.340610000000     0.450160000000     0.611650000000     0.0428651  
H24      H      0.380140000000     0.470480000000     0.648230000000     0.0400341  
H25      H      0.127790000000     0.475810000000     0.600350000000     0.0415772  
H26      H      0.130850000000     0.042680000000     0.601860000000     0.0397355  
H27      H      0.090460000000     0.059270000000     0.639140000000     0.0433027  
H28      H      0.148520000000     0.456360000000     0.632500000000     0.0433673  
H29      H      0.090770000000     0.456680000000     0.641270000000     0.0433954  
H30      H      0.111850000000     0.477840000000     0.672010000000     0.0376723  
H31      H      0.150600000000     0.058460000000     0.636450000000     0.0431738  
H32      H      0.109820000000     0.039700000000     0.672060000000     0.0377326  
H33      H      0.274100000000     0.267210000000     0.501510000000     0.0393691  
H34      H      0.271780000000     0.203780000000     0.504950000000     0.0392383  
H35      H      0.229030000000     0.188180000000     0.540730000000     0.0431881  
H36      H      0.245550000000     0.286530000000     0.476140000000     0.0433033  
H37      H      0.232080000000     0.290570000000     0.534010000000     0.0432474  
H38      H      0.202060000000     0.270460000000     0.511110000000     0.0395298  
H39      H      0.241340000000     0.184130000000     0.482230000000     0.0431675  
H40      H      0.199900000000     0.206910000000     0.515600000000     0.0394264  
H41      H      0.213970000000     0.037270000000     0.496580000000     0.0390202  
H42      H      0.214180000000     0.975460000000     0.495530000000     0.0401528  
H43      H      0.264590000000     0.455260000000     0.473470000000     0.0433092  
H44      H      0.235930000000     0.057400000000     0.527440000000     0.0433061  
H45      H      0.264110000000     0.058230000000     0.474790000000     0.043336   
H46      H      0.286270000000     0.537490000000     0.505090000000     0.0394943  
H47      H      0.236090000000     0.454450000000     0.525830000000     0.043243   
H48      H      0.286450000000     0.475440000000     0.504370000000     0.0397073  
H49      H      0.022590000000     0.206390000000     0.520620000000     0.0425916  
H50      H      0.023160000000     0.269560000000     0.516570000000     0.042878   
H51      H      0.981510000000     0.287570000000     0.480090000000     0.0426253  
H52      H      0.492240000000     0.188440000000     0.544810000000     0.0432698  
H53      H      0.481050000000     0.185010000000     0.486110000000     0.043225   
H54      H      0.450940000000     0.206150000000     0.507930000000     0.0395401  
H55      H      0.993310000000     0.290970000000     0.538490000000     0.0434658  
H56      H      0.451420000000     0.269350000000     0.504420000000     0.0393984  
H57      H      0.360710000000     0.200290000000     0.415750000000     0.0400206  
H58      H      0.360440000000     0.264980000000     0.411070000000     0.0400019  
H59      H      0.397070000000     0.280930000000     0.368860000000     0.0431855  
H60      H      0.338820000000     0.179140000000     0.385570000000     0.0432622  
H61      H      0.397220000000     0.178490000000     0.376170000000     0.0430102  
H62      H      0.375300000000     0.196330000000     0.343850000000     0.038381   
H63      H      0.338560000000     0.281440000000     0.378060000000     0.0432973  
H64      H      0.375270000000     0.258700000000     0.339440000000     0.0380429  
H65      H      0.120960000000     0.195840000000     0.356800000000     0.0398828  
H66      H      0.121360000000     0.259910000000     0.351200000000     0.0392831  
H67      H      0.088530000000     0.283060000000     0.393310000000     0.0433709  
H68      H      0.145470000000     0.179180000000     0.387830000000     0.0431162  
H69      H      0.088160000000     0.180750000000     0.402670000000     0.0438006  
H70      H      0.112780000000     0.203290000000     0.429470000000     0.0392206  
H71      H      0.145960000000     0.281430000000     0.378790000000     0.0434929  
H72      H      0.112870000000     0.265530000000     0.423940000000     0.0393163  
H73      H      0.465430000000     0.475640000000     0.489370000000     0.039728   
H74      H      0.466360000000     0.039400000000     0.489230000000     0.0389456  
H75      H      0.006360000000     0.057820000000     0.526930000000     0.0436835  
H76      H      0.496030000000     0.455690000000     0.467170000000     0.0433484  
H77      H      0.505620000000     0.455230000000     0.526070000000     0.0433897  
H78      H      0.036700000000     0.474680000000     0.504100000000     0.0394703  
H79      H      0.997950000000     0.058260000000     0.467490000000     0.0427206  
H80      H      0.037410000000     0.038320000000     0.504970000000     0.0389001  
H81      H      0.373660000000     0.469970000000     0.397810000000     0.0398337  
H82      H      0.376670000000     0.536020000000     0.398960000000     0.0412636  
H83      H      0.410630000000     0.055570000000     0.355430000000     0.0433258  
H84      H      0.351550000000     0.453580000000     0.365000000000     0.0432032  
H85      H      0.411260000000     0.452950000000     0.357670000000     0.0429322  
H86      H      0.389540000000     0.972390000000     0.326210000000     0.0388314  
H87      H      0.353720000000     0.055860000000     0.368650000000     0.043534   
H88      H      0.387440000000     0.034400000000     0.326290000000     0.0372012  
H89      H      0.123910000000     0.041200000000     0.346590000000     0.03957    
H90      H      0.126030000000     0.475300000000     0.351780000000     0.0398042  
H91      H      0.160730000000     0.460040000000     0.396240000000     0.0431072  
H92      H      0.101840000000     0.060940000000     0.377540000000     0.0435058  
H93      H      0.161240000000     0.062100000000     0.385260000000     0.043013   
H94      H      0.139470000000     0.045310000000     0.418210000000     0.0376885  
H95      H      0.103340000000     0.458800000000     0.384240000000     0.0434466  
H96      H      0.137910000000     0.483560000000     0.423790000000     0.0385489  
H97      H      0.289360000000     0.270130000000     0.750690000000     0.0410326  
H98      H      0.243710000000     0.313600000000     0.754630000000     0.0395241  
H99      H      0.197760000000     0.291080000000     0.728740000000     0.0398029  
H100     H      0.290760000000     0.240470000000     0.782040000000     0.0409124  
H101     H      0.269460000000     0.218390000000     0.730760000000     0.0391682  
H102     H      0.240430000000     0.217010000000     0.762660000000     0.0416314  
H103     H      0.214370000000     0.308350000000     0.785410000000     0.0397744  
H104     H      0.193560000000     0.261500000000     0.759460000000     0.0403108  
H105     H      0.252790000000     0.058140000000     0.755930000000     0.0389739  
H106     H      0.206110000000     0.012460000000     0.754560000000     0.0380175  
H107     H      0.222010000000     0.466130000000     0.721950000000     0.039951   
H108     H      0.288080000000     0.047470000000     0.777280000000     0.0405837  
H109     H      0.290050000000     0.041940000000     0.715780000000     0.0406216  
H110     H      0.301870000000     0.507800000000     0.738560000000     0.0387183  
H111     H      0.213230000000     0.478330000000     0.779890000000     0.0395029  
H112     H      0.257730000000     0.461390000000     0.745460000000     0.0415351  
H113     H      0.284860000000     0.393500000000     0.844920000000     0.0397608  
H114     H      0.220880000000     0.391170000000     0.850900000000     0.0397189  
H115     H      0.205720000000     0.360650000000     0.898830000000     0.043428   
H116     H      0.305520000000     0.418670000000     0.872700000000     0.043388   
H117     H      0.307470000000     0.360390000000     0.886870000000     0.0430848  
H118     H      0.290740000000     0.385140000000     0.917680000000     0.0387166  
H119     H      0.203470000000     0.416620000000     0.880700000000     0.0433511  
H120     H      0.229090000000     0.386400000000     0.923770000000     0.0391623  
H121     H      0.280810000000     0.144950000000     0.833760000000     0.0380757  
H122     H      0.218730000000     0.147810000000     0.832710000000     0.0384108  
H123     H      0.198570000000     0.110960000000     0.872340000000     0.0430725  
H124     H      0.301630000000     0.168210000000     0.863120000000     0.0430731  
H125     H      0.300780000000     0.111330000000     0.877300000000     0.0435279  
H126     H      0.280300000000     0.135000000000     0.906570000000     0.0404874  
H127     H      0.199240000000     0.170460000000     0.863460000000     0.0430618  
H128     H      0.215740000000     0.133320000000     0.904640000000     0.0395428  
H129     H      0.479270000000     0.215180000000     0.766780000000     0.0414216  
H130     H      0.435580000000     0.261950000000     0.761600000000     0.0397094  
H131     H      0.458060000000     0.306760000000     0.789260000000     0.039537   
H132     H      0.009320000000     0.214040000000     0.735880000000     0.0445521  
H133     H      0.030730000000     0.235050000000     0.787400000000     0.0387667  
H134     H      0.032170000000     0.264580000000     0.755890000000     0.0408421  
H135     H      0.442730000000     0.291440000000     0.731360000000     0.0403637  
H136     H      0.988350000000     0.311480000000     0.759410000000     0.0385367  
H137     H      0.039440000000     0.018440000000     0.748720000000     0.0434536  
H138     H      0.491940000000     0.062420000000     0.751980000000     0.0394657  
H139     H      0.451380000000     0.042580000000     0.716940000000     0.039708   
H140     H      0.036500000000     0.485820000000     0.776820000000     0.0406075  
H141     H      0.022240000000     0.469180000000     0.721320000000     0.0393497  
H142     H      0.989130000000     0.465310000000     0.748630000000     0.0382225  
H143     H      0.459190000000     0.052470000000     0.777490000000     0.0404623  
H144     H      0.443080000000     0.509740000000     0.743060000000     0.0389252  
H145     H      0.032400000000     0.391300000000     0.914500000000     0.0402066  
H146     H      0.469860000000     0.391840000000     0.916780000000     0.0392533  
H147     H      0.448260000000     0.419840000000     0.870130000000     0.0431478  
H148     H      0.051200000000     0.363780000000     0.887580000000     0.0435346  
H149     H      0.050720000000     0.419390000000     0.866520000000     0.0429008  
H150     H      0.029820000000     0.392060000000     0.841080000000     0.0394329  
H151     H      0.448750000000     0.364460000000     0.891500000000     0.0434753  
H152     H      0.467140000000     0.392240000000     0.843290000000     0.03921    
H153     H      0.028830000000     0.150860000000     0.840290000000     0.0389849  
H154     H      0.965590000000     0.150340000000     0.843730000000     0.0383808  
H155     H      0.448700000000     0.112080000000     0.884050000000     0.0433742  
H156     H      0.049900000000     0.171870000000     0.871080000000     0.0432745  
H157     H      0.050870000000     0.112990000000     0.878300000000     0.0430392  
H158     H      0.533190000000     0.133630000000     0.911530000000     0.0396594  
H159     H      0.447710000000     0.170990000000     0.876880000000     0.0426891  
H160     H      0.469550000000     0.133100000000     0.915030000000     0.0394017  
H161     H      0.249410000000     0.280100000000     0.251240000000     0.0400483  
H162     H      0.294500000000     0.233480000000     0.252300000000     0.0414708  
H163     H      0.275840000000     0.189010000000     0.285460000000     0.0391159  
H164     H      0.215310000000     0.272590000000     0.226700000000     0.0410766  
H165     H      0.206550000000     0.263960000000     0.286190000000     0.0404144  
H166     H      0.197920000000     0.230080000000     0.261500000000     0.0394698  
H167     H      0.286750000000     0.199790000000     0.226630000000     0.0382669  
H168     H      0.241600000000     0.183510000000     0.259990000000     0.0411272  
H169     H      0.286670000000     0.289820000000     0.012590000000     0.039566   
H170     H      0.223350000000     0.290630000000     0.012510000000     0.0393381  
H171     H      0.202940000000     0.250460000000     0.975610000000     0.0431815  
H172     H      0.305750000000     0.258200000000     0.034250000000     0.043044   
H173     H      0.305360000000     0.249550000000     0.975000000000     0.043285   
H174     H      0.285530000000     0.218580000000     0.996840000000     0.0390678  
H175     H      0.203340000000     0.259890000000     0.034510000000     0.0433963  
H176     H      0.222510000000     0.219240000000     0.997420000000     0.0395334  
H177     H      0.299900000000     0.997120000000     0.249570000000     0.046139   
H178     H      0.253520000000     0.451910000000     0.248250000000     0.0392245  
H179     H      0.213220000000     0.470210000000     0.284610000000     0.0403419  
H180     H      0.294490000000     0.030080000000     0.222290000000     0.0403694  
H181     H      0.282600000000     0.044950000000     0.279090000000     0.0391668  
H182     H      0.248330000000     0.048890000000     0.253320000000     0.0405438  
H183     H      0.219500000000     0.460870000000     0.224090000000     0.0404131  
H184     H      0.203610000000     0.503260000000     0.259220000000     0.03914    
H185     H      0.223790000000     0.043360000000     0.998590000000     0.0395252  
H186     H      0.286870000000     0.041190000000     0.997230000000     0.0394319  
H187     H      0.305490000000     0.996140000000     0.028790000000     0.0435793  
H188     H      0.202640000000     0.516000000000     0.973360000000     0.0433653  
H189     H      0.203170000000     0.499620000000     0.030770000000     0.0431199  
H190     H      0.221190000000     0.470730000000     0.004750000000     0.0393701  
H191     H      0.304970000000     0.012310000000     0.971270000000     0.0428823  
H192     H      0.284600000000     0.468570000000     0.003580000000     0.0393826  
H193     H      0.288480000000     0.366380000000     0.172230000000     0.0386302  
H194     H      0.226430000000     0.369180000000     0.169880000000     0.0384187  
H195     H      0.207250000000     0.398630000000     0.122740000000     0.0435257  
H196     H      0.308460000000     0.340990000000     0.144080000000     0.0431507  
H197     H      0.309510000000     0.399290000000     0.129410000000     0.0431784  
H198     H      0.292250000000     0.374160000000     0.099270000000     0.0394913  
H199     H      0.206010000000     0.343380000000     0.142440000000     0.0431231  
H200     H      0.228620000000     0.372420000000     0.096480000000     0.0402832  
H201     H      0.279430000000     0.126980000000     0.084750000000     0.0389498  
H202     H      0.217230000000     0.128130000000     0.090460000000     0.038542   
H203     H      0.202260000000     0.091160000000     0.132390000000     0.0429185  
H204     H      0.302480000000     0.150610000000     0.112010000000     0.0433197  
H205     H      0.304350000000     0.093460000000     0.125590000000     0.0428628  
H206     H      0.286720000000     0.116600000000     0.157120000000     0.0391895  
H207     H      0.200670000000     0.150450000000     0.123170000000     0.0429316  
H208     H      0.222700000000     0.113980000000     0.162330000000     0.0392413  
H209     H      0.504010000000     0.279040000000     0.251350000000     0.0392293  
H210     H      0.051510000000     0.235440000000     0.254590000000     0.0418137  
H211     H      0.036910000000     0.192470000000     0.291670000000     0.0380867  
H212     H      0.469410000000     0.267560000000     0.229180000000     0.0408218  
H213     H      0.464070000000     0.263740000000     0.289710000000     0.0405759  
H214     H      0.455640000000     0.227720000000     0.268340000000     0.039344   
H215     H      0.045210000000     0.199390000000     0.231920000000     0.0394462  
H216     H      0.002240000000     0.183000000000     0.268070000000     0.0422586  
H217     H      0.469950000000     0.282440000000     0.009780000000     0.0396048  
H218     H      0.033740000000     0.284070000000     0.008180000000     0.0399859  
H219     H      0.054870000000     0.237280000000     0.035460000000     0.0432048  
H220     H      0.450670000000     0.255970000000     0.982170000000     0.0432823  
H221     H      0.452540000000     0.234670000000     0.038000000000     0.0432049  
H222     H      0.472330000000     0.209530000000     0.009500000000     0.0391206  
H223     H      0.052950000000     0.258560000000     0.979620000000     0.0432673  
H224     H      0.035020000000     0.211130000000     0.007950000000     0.0396936  
H225     H      0.511970000000     0.447860000000     0.242280000000     0.039526   
H226     H      0.464180000000     0.992470000000     0.242160000000     0.046395   
H227     H      0.480570000000     0.041320000000     0.270490000000     0.0389005  
H228     H      0.045780000000     0.457310000000     0.218060000000     0.0407459  
H229     H      0.051380000000     0.468240000000     0.278440000000     0.0401388  
H230     H      0.060380000000     0.500820000000     0.252220000000     0.0386713  
H231     H      0.469360000000     0.024670000000     0.213950000000     0.0399969  
H232     H      0.014910000000     0.045150000000     0.244790000000     0.0435179  
H233     H      0.468500000000     0.028260000000     0.000290000000     0.03987    
H234     H      0.031720000000     0.031880000000     0.999700000000     0.0405523  
H235     H      0.054690000000     0.983010000000     0.022070000000     0.0432968  
H236     H      0.449980000000     0.503860000000     0.970250000000     0.0430743  
H237     H      0.452300000000     0.477260000000     0.023720000000     0.0433521  
H238     H      0.473530000000     0.455810000000     0.993270000000     0.0389861  
H239     H      0.052390000000     0.010140000000     0.969080000000     0.0432609  
H240     H      0.034990000000     0.459380000000     0.992160000000     0.0397731  
H241     H      0.035040000000     0.362860000000     0.091690000000     0.0400671  
H242     H      0.471320000000     0.362720000000     0.095780000000     0.0399028  
H243     H      0.455180000000     0.329300000000     0.140630000000     0.0433127  
H244     H      0.056100000000     0.387410000000     0.119770000000     0.0434768  
H245     H      0.057400000000     0.329930000000     0.134110000000     0.042702   
H246     H      0.039300000000     0.354220000000     0.164540000000     0.0391785  
H247     H      0.453930000000     0.386970000000     0.126610000000     0.0432756  
H248     H      0.476610000000     0.353750000000     0.168470000000     0.0383255  
H249     H      0.974240000000     0.106380000000     0.087770000000     0.0384152  
H250     H      0.036820000000     0.105950000000     0.087850000000     0.0394544  
H251     H      0.056850000000     0.136350000000     0.133430000000     0.0434822  
H252     H      0.454070000000     0.080430000000     0.115270000000     0.042654   
H253     H      0.454370000000     0.136950000000     0.133300000000     0.0429587  
H254     H      0.473760000000     0.110720000000     0.161150000000     0.0388096  
H255     H      0.056570000000     0.079790000000     0.115450000000     0.0427134  
H256     H      0.537100000000     0.110390000000     0.161170000000     0.0390683  
H257     H      0.349200000000     0.716540000000     0.669640000000     0.0388953  
H258     H      0.349650000000     0.780850000000     0.663660000000     0.0396023  
H259     H      0.386010000000     0.795760000000     0.620760000000     0.0435925  
H260     H      0.327070000000     0.694870000000     0.640100000000     0.0432973  
H261     H      0.385550000000     0.693570000000     0.630680000000     0.0429959  
H262     H      0.363670000000     0.710530000000     0.597910000000     0.0390196  
H263     H      0.327630000000     0.796980000000     0.630520000000     0.042957   
H264     H      0.363800000000     0.773110000000     0.591980000000     0.0389933  
H265     H      0.101860000000     0.718420000000     0.681670000000     0.0385157  
H266     H      0.101850000000     0.780470000000     0.676170000000     0.0386669  
H267     H      0.134190000000     0.796800000000     0.630520000000     0.0435168  
H268     H      0.077220000000     0.695740000000     0.655020000000     0.0436259  
H269     H      0.134520000000     0.694520000000     0.639910000000     0.0435759  
H270     H      0.109750000000     0.710940000000     0.609030000000     0.0402697  
H271     H      0.077070000000     0.798090000000     0.645900000000     0.0433487  
H272     H      0.109430000000     0.774940000000     0.603260000000     0.0401617  
H273     H      0.361780000000     0.528810000000     0.572350000000     0.0382991  
H274     H      0.360470000000     0.967220000000     0.577620000000     0.0384944  
H275     H      0.400380000000     0.951270000000     0.615720000000     0.0430703  
H276     H      0.340630000000     0.552280000000     0.601270000000     0.0431395  
H277     H      0.398660000000     0.553310000000     0.609690000000     0.0432233  
H278     H      0.377820000000     0.537070000000     0.643520000000     0.0400086  
H279     H      0.340610000000     0.950160000000     0.611650000000     0.0427619  
H280     H      0.380140000000     0.970480000000     0.648230000000     0.0408323  
H281     H      0.127790000000     0.975810000000     0.600350000000     0.0422541  
H282     H      0.130850000000     0.542680000000     0.601860000000     0.0402006  
H283     H      0.090460000000     0.559270000000     0.639140000000     0.0432034  
H284     H      0.148520000000     0.956360000000     0.632500000000     0.0432383  
H285     H      0.090770000000     0.956680000000     0.641270000000     0.0432608  
H286     H      0.111850000000     0.977830000000     0.672010000000     0.0384402  
H287     H      0.150600000000     0.558460000000     0.636450000000     0.0431811  
H288     H      0.109820000000     0.539700000000     0.672060000000     0.0382419  
H289     H      0.274100000000     0.767210000000     0.501510000000     0.0393555  
H290     H      0.271780000000     0.703780000000     0.504950000000     0.0392268  
H291     H      0.229030000000     0.688180000000     0.540730000000     0.0431825  
H292     H      0.245550000000     0.786530000000     0.476140000000     0.043298   
H293     H      0.232080000000     0.790570000000     0.534010000000     0.0432951  
H294     H      0.202060000000     0.770460000000     0.511110000000     0.0395634  
H295     H      0.241340000000     0.684130000000     0.482230000000     0.0431644  
H296     H      0.199900000000     0.706910000000     0.515600000000     0.0394228  
H297     H      0.213970000000     0.537270000000     0.496580000000     0.0395996  
H298     H      0.214180000000     0.475460000000     0.495530000000     0.0394372  
H299     H      0.264590000000     0.955260000000     0.473470000000     0.0431537  
H300     H      0.235930000000     0.557400000000     0.527440000000     0.0432595  
H301     H      0.264110000000     0.558230000000     0.474790000000     0.0432832  
H302     H      0.286270000000     0.037490000000     0.505090000000     0.038982   
H303     H      0.236090000000     0.954450000000     0.525830000000     0.043128   
H304     H      0.286450000000     0.975440000000     0.504370000000     0.0404488  
H305     H      0.022590000000     0.706390000000     0.520620000000     0.0426186  
H306     H      0.023160000000     0.769560000000     0.516570000000     0.0428748  
H307     H      0.981510000000     0.787570000000     0.480090000000     0.0426374  
H308     H      0.492240000000     0.688440000000     0.544810000000     0.0432987  
H309     H      0.481050000000     0.685020000000     0.486110000000     0.0432435  
H310     H      0.450940000000     0.706150000000     0.507930000000     0.0395358  
H311     H      0.993310000000     0.790970000000     0.538490000000     0.0434795  
H312     H      0.451420000000     0.769350000000     0.504420000000     0.0394007  
H313     H      0.360710000000     0.700290000000     0.415750000000     0.0400165  
H314     H      0.360440000000     0.764980000000     0.411070000000     0.0399996  
H315     H      0.397070000000     0.780930000000     0.368860000000     0.0431899  
H316     H      0.338820000000     0.679140000000     0.385570000000     0.0432653  
H317     H      0.397220000000     0.678490000000     0.376170000000     0.0430213  
H318     H      0.375300000000     0.696320000000     0.343850000000     0.0383817  
H319     H      0.338560000000     0.781440000000     0.378060000000     0.043299   
H320     H      0.375270000000     0.758700000000     0.339440000000     0.0380398  
H321     H      0.120960000000     0.695840000000     0.356800000000     0.039885   
H322     H      0.121360000000     0.759910000000     0.351200000000     0.0392775  
H323     H      0.088530000000     0.783060000000     0.393310000000     0.0433791  
H324     H      0.145470000000     0.679180000000     0.387830000000     0.0431212  
H325     H      0.088160000000     0.680760000000     0.402670000000     0.0438331  
H326     H      0.112780000000     0.703290000000     0.429470000000     0.0392277  
H327     H      0.145960000000     0.781430000000     0.378790000000     0.0434948  
H328     H      0.112870000000     0.765520000000     0.423940000000     0.0393244  
H329     H      0.465430000000     0.975640000000     0.489370000000     0.0404614  
H330     H      0.466360000000     0.539400000000     0.489230000000     0.0394485  
H331     H      0.006360000000     0.557820000000     0.526930000000     0.043637   
H332     H      0.496030000000     0.955690000000     0.467170000000     0.0432159  
H333     H      0.505620000000     0.955230000000     0.526070000000     0.0432595  
H334     H      0.036700000000     0.974680000000     0.504100000000     0.0401315  
H335     H      0.997950000000     0.558260000000     0.467490000000     0.0426747  
H336     H      0.037410000000     0.538320000000     0.504970000000     0.0394624  
H337     H      0.373660000000     0.969970000000     0.397810000000     0.0404423  
H338     H      0.376670000000     0.036020000000     0.398960000000     0.0407664  
H339     H      0.410630000000     0.555570000000     0.355430000000     0.043305   
H340     H      0.351550000000     0.953580000000     0.365000000000     0.0430659  
H341     H      0.411260000000     0.952950000000     0.357670000000     0.0427834  
H342     H      0.389540000000     0.472390000000     0.326210000000     0.0382575  
H343     H      0.353720000000     0.555860000000     0.368650000000     0.0435028  
H344     H      0.387440000000     0.534400000000     0.326290000000     0.0379026  
H345     H      0.123910000000     0.541200000000     0.346590000000     0.0400513  
H346     H      0.126030000000     0.975300000000     0.351780000000     0.0404344  
H347     H      0.160730000000     0.960040000000     0.396240000000     0.0429695  
H348     H      0.101840000000     0.560940000000     0.377540000000     0.0434653  
H349     H      0.161240000000     0.562100000000     0.385260000000     0.0429608  
H350     H      0.139470000000     0.545310000000     0.418210000000     0.0382002  
H351     H      0.103340000000     0.958800000000     0.384240000000     0.0433144  
H352     H      0.137910000000     0.983560000000     0.423790000000     0.0393594  
H353     H      0.289360000000     0.770130000000     0.750690000000     0.0410586  
H354     H      0.243710000000     0.813600000000     0.754630000000     0.0396019  
H355     H      0.197760000000     0.791080000000     0.728740000000     0.039831   
H356     H      0.290760000000     0.740470000000     0.782040000000     0.0409102  
H357     H      0.269460000000     0.718390000000     0.730760000000     0.0391575  
H358     H      0.240430000000     0.717010000000     0.762660000000     0.0416211  
H359     H      0.214370000000     0.808350000000     0.785410000000     0.0398361  
H360     H      0.193560000000     0.761500000000     0.759460000000     0.0403101  
H361     H      0.252790000000     0.558140000000     0.755930000000     0.0390821  
H362     H      0.206110000000     0.512460000000     0.754560000000     0.0420736  
H363     H      0.222010000000     0.966130000000     0.721950000000     0.0406273  
H364     H      0.288080000000     0.547470000000     0.777280000000     0.0407446  
H365     H      0.290050000000     0.541940000000     0.715780000000     0.0406265  
H366     H      0.301870000000     0.007790000000     0.738560000000     0.0378014  
H367     H      0.213230000000     0.978330000000     0.779890000000     0.0390511  
H368     H      0.257730000000     0.961390000000     0.745460000000     0.0422737  
H369     H      0.284860000000     0.893500000000     0.844920000000     0.0400175  
H370     H      0.220880000000     0.891170000000     0.850900000000     0.0399236  
H371     H      0.205720000000     0.860650000000     0.898830000000     0.0435361  
H372     H      0.305520000000     0.918670000000     0.872700000000     0.0438979  
H373     H      0.307470000000     0.860390000000     0.886870000000     0.0432025  
H374     H      0.290740000000     0.885140000000     0.917680000000     0.0389666  
H375     H      0.203470000000     0.916620000000     0.880700000000     0.0437966  
H376     H      0.229090000000     0.886400000000     0.923770000000     0.0394074  
H377     H      0.280810000000     0.644950000000     0.833760000000     0.03808    
H378     H      0.218730000000     0.647810000000     0.832710000000     0.0384242  
H379     H      0.198570000000     0.610950000000     0.872340000000     0.0431805  
H380     H      0.301630000000     0.668210000000     0.863120000000     0.0430812  
H381     H      0.300780000000     0.611330000000     0.877300000000     0.0436028  
H382     H      0.280300000000     0.635000000000     0.906570000000     0.0405304  
H383     H      0.199240000000     0.670460000000     0.863460000000     0.0430752  
H384     H      0.215740000000     0.633320000000     0.904640000000     0.0396022  
H385     H      0.479270000000     0.715180000000     0.766780000000     0.0414102  
H386     H      0.435580000000     0.761950000000     0.761600000000     0.0397149  
H387     H      0.458060000000     0.806760000000     0.789260000000     0.0396112  
H388     H      0.009320000000     0.714040000000     0.735880000000     0.0445432  
H389     H      0.030730000000     0.735050000000     0.787400000000     0.0387634  
H390     H      0.032170000000     0.764580000000     0.755890000000     0.0408537  
H391     H      0.442730000000     0.791440000000     0.731360000000     0.040414   
H392     H      0.988350000000     0.811480000000     0.759410000000     0.0386129  
H393     H      0.039440000000     0.518440000000     0.748720000000     0.0421817  
H394     H      0.491940000000     0.562420000000     0.751980000000     0.0393543  
H395     H      0.451380000000     0.542580000000     0.716940000000     0.0398462  
H396     H      0.036500000000     0.985830000000     0.776820000000     0.0455593  
H397     H      0.022240000000     0.969180000000     0.721320000000     0.0384292  
H398     H      0.989130000000     0.965310000000     0.748630000000     0.0375381  
H399     H      0.459190000000     0.552470000000     0.777490000000     0.0405133  
H400     H      0.443080000000     0.009740000000     0.743060000000     0.0379112  
H401     H      0.032400000000     0.891300000000     0.914500000000     0.0404802  
H402     H      0.469860000000     0.891840000000     0.916780000000     0.0395429  
H403     H      0.448260000000     0.919840000000     0.870130000000     0.043664   
H404     H      0.051200000000     0.863780000000     0.887580000000     0.0436496  
H405     H      0.050720000000     0.919390000000     0.866520000000     0.0433442  
H406     H      0.029820000000     0.892060000000     0.841080000000     0.0396199  
H407     H      0.448750000000     0.864460000000     0.891500000000     0.0436042  
H408     H      0.467140000000     0.892240000000     0.843290000000     0.0394469  
H409     H      0.028830000000     0.650860000000     0.840290000000     0.0389956  
H410     H      0.965590000000     0.650340000000     0.843730000000     0.0383825  
H411     H      0.448700000000     0.612080000000     0.884050000000     0.0434551  
H412     H      0.049900000000     0.671870000000     0.871080000000     0.0432888  
H413     H      0.050870000000     0.612990000000     0.878300000000     0.0431335  
H414     H      0.533190000000     0.633630000000     0.911530000000     0.0397139  
H415     H      0.447710000000     0.670990000000     0.876880000000     0.042699   
H416     H      0.469550000000     0.633100000000     0.915030000000     0.0394529  
H417     H      0.249410000000     0.780100000000     0.251240000000     0.0400457  
H418     H      0.294500000000     0.733480000000     0.252300000000     0.0414678  
H419     H      0.275840000000     0.689010000000     0.285460000000     0.0391281  
H420     H      0.215310000000     0.772590000000     0.226700000000     0.0410772  
H421     H      0.206550000000     0.763960000000     0.286190000000     0.040407   
H422     H      0.197920000000     0.730080000000     0.261500000000     0.0394728  
H423     H      0.286750000000     0.699790000000     0.226630000000     0.0382979  
H424     H      0.241600000000     0.683510000000     0.259990000000     0.04116    
H425     H      0.286670000000     0.789820000000     0.012590000000     0.0395959  
H426     H      0.223350000000     0.790630000000     0.012510000000     0.0393683  
H427     H      0.202940000000     0.750460000000     0.975610000000     0.0431976  
H428     H      0.305750000000     0.758200000000     0.034250000000     0.0430584  
H429     H      0.305360000000     0.749550000000     0.975000000000     0.0433002  
H430     H      0.285530000000     0.718580000000     0.996840000000     0.0390985  
H431     H      0.203340000000     0.759890000000     0.034510000000     0.043411   
H432     H      0.222510000000     0.719240000000     0.997420000000     0.0395645  
H433     H      0.299900000000     0.497120000000     0.249570000000     0.0416326  
H434     H      0.253520000000     0.951910000000     0.248250000000     0.0398991  
H435     H      0.213220000000     0.970210000000     0.284610000000     0.0393728  
H436     H      0.294490000000     0.530080000000     0.222290000000     0.0397258  
H437     H      0.282600000000     0.544950000000     0.279090000000     0.0399875  
H438     H      0.248330000000     0.548890000000     0.253320000000     0.0414077  
H439     H      0.219500000000     0.960870000000     0.224090000000     0.0413404  
H440     H      0.203610000000     0.003260000000     0.259220000000     0.0346063  
H441     H      0.223790000000     0.543360000000     0.998590000000     0.0393572  
H442     H      0.286870000000     0.541190000000     0.997230000000     0.039273   
H443     H      0.305490000000     0.496140000000     0.028790000000     0.0433692  
H444     H      0.202640000000     0.016000000000     0.973360000000     0.0432302  
H445     H      0.203170000000     0.999620000000     0.030770000000     0.0433672  
H446     H      0.221190000000     0.970730000000     0.004750000000     0.0392329  
H447     H      0.304970000000     0.512310000000     0.971270000000     0.0430485  
H448     H      0.284600000000     0.968570000000     0.003580000000     0.0392293  
H449     H      0.288480000000     0.866380000000     0.172230000000     0.038668   
H450     H      0.226430000000     0.869180000000     0.169880000000     0.0384582  
H451     H      0.207250000000     0.898630000000     0.122740000000     0.0436411  
H452     H      0.308460000000     0.840990000000     0.144080000000     0.0431786  
H453     H      0.309510000000     0.899290000000     0.129410000000     0.0432983  
H454     H      0.292250000000     0.874160000000     0.099270000000     0.0395485  
H455     H      0.206010000000     0.843380000000     0.142440000000     0.0431568  
H456     H      0.228620000000     0.872420000000     0.096480000000     0.0403326  
H457     H      0.279430000000     0.626980000000     0.084750000000     0.0391581  
H458     H      0.217230000000     0.628130000000     0.090460000000     0.0387476  
H459     H      0.202260000000     0.591160000000     0.132390000000     0.0433347  
H460     H      0.302480000000     0.650610000000     0.112010000000     0.0433956  
H461     H      0.304350000000     0.593460000000     0.125590000000     0.0432708  
H462     H      0.286720000000     0.616600000000     0.157120000000     0.0393668  
H463     H      0.200670000000     0.650450000000     0.123170000000     0.0430006  
H464     H      0.222700000000     0.613980000000     0.162330000000     0.0394215  
H465     H      0.504010000000     0.779040000000     0.251350000000     0.039228   
H466     H      0.051510000000     0.735440000000     0.254590000000     0.041818   
H467     H      0.036910000000     0.692470000000     0.291670000000     0.0380672  
H468     H      0.469410000000     0.767560000000     0.229180000000     0.0408221  
H469     H      0.464070000000     0.763750000000     0.289710000000     0.0405594  
H470     H      0.455640000000     0.727720000000     0.268340000000     0.0393447  
H471     H      0.045210000000     0.699390000000     0.231920000000     0.0394821  
H472     H      0.002240000000     0.683000000000     0.268070000000     0.0422556  
H473     H      0.469950000000     0.782440000000     0.009780000000     0.0396107  
H474     H      0.033740000000     0.784070000000     0.008180000000     0.0399893  
H475     H      0.054870000000     0.737280000000     0.035460000000     0.0432227  
H476     H      0.450670000000     0.755970000000     0.982170000000     0.0432958  
H477     H      0.452540000000     0.734670000000     0.038000000000     0.0432121  
H478     H      0.472330000000     0.709530000000     0.009500000000     0.0391375  
H479     H      0.052950000000     0.758560000000     0.979620000000     0.0432792  
H480     H      0.035020000000     0.711130000000     0.007950000000     0.0397235  
H481     H      0.511970000000     0.947860000000     0.242280000000     0.0401807  
H482     H      0.464180000000     0.492470000000     0.242160000000     0.0419263  
H483     H      0.480570000000     0.541320000000     0.270490000000     0.0397252  
H484     H      0.045780000000     0.957310000000     0.218060000000     0.0416747  
H485     H      0.051380000000     0.968240000000     0.278440000000     0.0391906  
H486     H      0.060380000000     0.000820000000     0.252220000000     0.0341565  
H487     H      0.469360000000     0.524670000000     0.213950000000     0.0393677  
H488     H      0.014910000000     0.545150000000     0.244790000000     0.0443781  
H489     H      0.468500000000     0.528260000000     0.000290000000     0.0397635  
H490     H      0.031720000000     0.531880000000     0.999700000000     0.0404442  
H491     H      0.054690000000     0.483010000000     0.022070000000     0.0431729  
H492     H      0.449980000000     0.003860000000     0.970250000000     0.042876   
H493     H      0.452300000000     0.977260000000     0.023720000000     0.0434042  
H494     H      0.473530000000     0.955810000000     0.993270000000     0.0388378  
H495     H      0.052390000000     0.510140000000     0.969080000000     0.0433899  
H496     H      0.034990000000     0.959380000000     0.992160000000     0.039656   
H497     H      0.035040000000     0.862860000000     0.091690000000     0.0400918  
H498     H      0.471320000000     0.862720000000     0.095780000000     0.0399371  
H499     H      0.455180000000     0.829300000000     0.140630000000     0.0433218  
H500     H      0.056100000000     0.887410000000     0.119770000000     0.0435668  
H501     H      0.057400000000     0.829930000000     0.134110000000     0.0427173  
H502     H      0.039300000000     0.854220000000     0.164540000000     0.0392057  
H503     H      0.453930000000     0.886970000000     0.126610000000     0.0433666  
H504     H      0.476610000000     0.853750000000     0.168470000000     0.0383482  
H505     H      0.974240000000     0.606380000000     0.087770000000     0.0386229  
H506     H      0.036820000000     0.605950000000     0.087850000000     0.0396744  
H507     H      0.056850000000     0.636350000000     0.133430000000     0.0435843  
H508     H      0.454070000000     0.580430000000     0.115270000000     0.0431064  
H509     H      0.454370000000     0.636950000000     0.133300000000     0.0430713  
H510     H      0.473760000000     0.610720000000     0.161150000000     0.0390259  
H511     H      0.056570000000     0.579790000000     0.115450000000     0.0431699  
H512     H      0.537100000000     0.610390000000     0.161170000000     0.0392702  
H513     H      0.849200000000     0.216540000000     0.669640000000     0.0389004  
H514     H      0.849650000000     0.280850000000     0.663660000000     0.0395596  
H515     H      0.886010000000     0.295760000000     0.620760000000     0.0434967  
H516     H      0.827070000000     0.194870000000     0.640100000000     0.0433169  
H517     H      0.885550000000     0.193570000000     0.630680000000     0.0429509  
H518     H      0.863670000000     0.210530000000     0.597910000000     0.0390235  
H519     H      0.827630000000     0.296980000000     0.630520000000     0.0429178  
H520     H      0.863800000000     0.273110000000     0.591980000000     0.0389819  
H521     H      0.601860000000     0.218420000000     0.681670000000     0.0383543  
H522     H      0.601850000000     0.280470000000     0.676170000000     0.0384453  
H523     H      0.634190000000     0.296800000000     0.630520000000     0.0433806  
H524     H      0.577220000000     0.195740000000     0.655020000000     0.0432589  
H525     H      0.634520000000     0.194520000000     0.639910000000     0.0434819  
H526     H      0.609750000000     0.210940000000     0.609030000000     0.0400389  
H527     H      0.577070000000     0.298090000000     0.645900000000     0.0428969  
H528     H      0.609430000000     0.274940000000     0.603260000000     0.0399076  
H529     H      0.861780000000     0.028810000000     0.572350000000     0.0375099  
H530     H      0.860470000000     0.467220000000     0.577620000000     0.0377938  
H531     H      0.900380000000     0.451270000000     0.615720000000     0.0429867  
H532     H      0.840630000000     0.052280000000     0.601270000000     0.0431647  
H533     H      0.898660000000     0.053310000000     0.609690000000     0.0431436  
H534     H      0.877820000000     0.037070000000     0.643520000000     0.0396678  
H535     H      0.840610000000     0.450160000000     0.611650000000     0.042838   
H536     H      0.880130000000     0.470480000000     0.648230000000     0.0400242  
H537     H      0.627790000000     0.475810000000     0.600350000000     0.0414818  
H538     H      0.630850000000     0.042680000000     0.601860000000     0.0396472  
H539     H      0.590460000000     0.059270000000     0.639140000000     0.0429991  
H540     H      0.648520000000     0.456360000000     0.632500000000     0.0432921  
H541     H      0.590770000000     0.456680000000     0.641270000000     0.0430844  
H542     H      0.611850000000     0.477840000000     0.672010000000     0.0374865  
H543     H      0.650600000000     0.058460000000     0.636450000000     0.0431148  
H544     H      0.609820000000     0.039700000000     0.672060000000     0.0375214  
H545     H      0.774100000000     0.267210000000     0.501510000000     0.0393686  
H546     H      0.771780000000     0.203780000000     0.504950000000     0.0392415  
H547     H      0.729030000000     0.188180000000     0.540730000000     0.0431694  
H548     H      0.745550000000     0.286530000000     0.476140000000     0.0432894  
H549     H      0.732070000000     0.290570000000     0.534010000000     0.0432215  
H550     H      0.702060000000     0.270460000000     0.511110000000     0.0394619  
H551     H      0.741340000000     0.184130000000     0.482230000000     0.0431617  
H552     H      0.699900000000     0.206910000000     0.515600000000     0.0393628  
H553     H      0.713970000000     0.037270000000     0.496580000000     0.0389897  
H554     H      0.714180000000     0.975460000000     0.495530000000     0.0401176  
H555     H      0.764590000000     0.455260000000     0.473470000000     0.0432884  
H556     H      0.735930000000     0.057400000000     0.527440000000     0.0432919  
H557     H      0.764110000000     0.058230000000     0.474790000000     0.0433274  
H558     H      0.786270000000     0.537490000000     0.505090000000     0.0394742  
H559     H      0.736090000000     0.454450000000     0.525830000000     0.0432183  
H560     H      0.786450000000     0.475440000000     0.504370000000     0.0396803  
H561     H      0.522590000000     0.206390000000     0.520620000000     0.0393113  
H562     H      0.523160000000     0.269560000000     0.516570000000     0.0395684  
H563     H      0.481510000000     0.287570000000     0.480090000000     0.0434828  
H564     H      0.992240000000     0.188440000000     0.544810000000     0.0435596  
H565     H      0.981050000000     0.185010000000     0.486110000000     0.0423609  
H566     H      0.950940000000     0.206150000000     0.507930000000     0.0393291  
H567     H      0.493310000000     0.290970000000     0.538490000000     0.0431557  
H568     H      0.951420000000     0.269350000000     0.504420000000     0.0391777  
H569     H      0.860710000000     0.200290000000     0.415750000000     0.0400037  
H570     H      0.860440000000     0.264980000000     0.411070000000     0.0399781  
H571     H      0.897070000000     0.280930000000     0.368860000000     0.0430572  
H572     H      0.838820000000     0.179140000000     0.385570000000     0.0432357  
H573     H      0.897220000000     0.178490000000     0.376170000000     0.0428475  
H574     H      0.875300000000     0.196330000000     0.343850000000     0.0382795  
H575     H      0.838560000000     0.281440000000     0.378060000000     0.0432688  
H576     H      0.875270000000     0.258700000000     0.339440000000     0.0379709  
H577     H      0.620960000000     0.195840000000     0.356800000000     0.0397971  
H578     H      0.621370000000     0.259910000000     0.351200000000     0.0391538  
H579     H      0.588530000000     0.283060000000     0.393310000000     0.0430217  
H580     H      0.645470000000     0.179180000000     0.387830000000     0.0430821  
H581     H      0.588160000000     0.180750000000     0.402670000000     0.0435248  
H582     H      0.612780000000     0.203290000000     0.429470000000     0.0390243  
H583     H      0.645960000000     0.281430000000     0.378790000000     0.0434295  
H584     H      0.612870000000     0.265530000000     0.423940000000     0.0391068  
H585     H      0.965430000000     0.475640000000     0.489370000000     0.0398767  
H586     H      0.966360000000     0.039400000000     0.489230000000     0.039109   
H587     H      0.506360000000     0.057820000000     0.526930000000     0.0433687  
H588     H      0.996030000000     0.455690000000     0.467170000000     0.0428912  
H589     H      0.005620000000     0.455230000000     0.526070000000     0.0436895  
H590     H      0.536700000000     0.474680000000     0.504100000000     0.0396054  
H591     H      0.497950000000     0.058260000000     0.467490000000     0.0431669  
H592     H      0.537410000000     0.038320000000     0.504970000000     0.0390406  
H593     H      0.873660000000     0.469970000000     0.397810000000     0.0397187  
H594     H      0.876670000000     0.536020000000     0.398960000000     0.0411583  
H595     H      0.910630000000     0.055570000000     0.355430000000     0.0430488  
H596     H      0.851550000000     0.453580000000     0.365000000000     0.0431422  
H597     H      0.911260000000     0.452950000000     0.357670000000     0.0426219  
H598     H      0.889540000000     0.972390000000     0.326210000000     0.0386511  
H599     H      0.853720000000     0.055860000000     0.368650000000     0.0434858  
H600     H      0.887440000000     0.034400000000     0.326290000000     0.037052   
H601     H      0.623900000000     0.041200000000     0.346590000000     0.0395567  
H602     H      0.626030000000     0.475300000000     0.351780000000     0.039774   
H603     H      0.660730000000     0.460040000000     0.396240000000     0.0430541  
H604     H      0.601840000000     0.060940000000     0.377540000000     0.0433619  
H605     H      0.661240000000     0.062100000000     0.385260000000     0.0429806  
H606     H      0.639470000000     0.045310000000     0.418210000000     0.037575   
H607     H      0.603340000000     0.458800000000     0.384240000000     0.0432749  
H608     H      0.637910000000     0.483560000000     0.423790000000     0.0384317  
H609     H      0.789360000000     0.270130000000     0.750690000000     0.0410374  
H610     H      0.743710000000     0.313600000000     0.754630000000     0.0395158  
H611     H      0.697760000000     0.291080000000     0.728740000000     0.0397929  
H612     H      0.790760000000     0.240470000000     0.782040000000     0.0409159  
H613     H      0.769450000000     0.218390000000     0.730760000000     0.0391903  
H614     H      0.740430000000     0.217010000000     0.762660000000     0.0416342  
H615     H      0.714370000000     0.308350000000     0.785410000000     0.039744   
H616     H      0.693560000000     0.261500000000     0.759460000000     0.0403029  
H617     H      0.752790000000     0.058140000000     0.755930000000     0.0389702  
H618     H      0.706110000000     0.012460000000     0.754560000000     0.0379829  
H619     H      0.722010000000     0.466130000000     0.721950000000     0.0399317  
H620     H      0.788080000000     0.047470000000     0.777280000000     0.0405893  
H621     H      0.790050000000     0.041940000000     0.715780000000     0.0406263  
H622     H      0.801870000000     0.507800000000     0.738560000000     0.0387236  
H623     H      0.713230000000     0.478330000000     0.779890000000     0.0394821  
H624     H      0.757730000000     0.461390000000     0.745460000000     0.0415393  
H625     H      0.784860000000     0.393500000000     0.844920000000     0.0397668  
H626     H      0.720880000000     0.391170000000     0.850900000000     0.0397097  
H627     H      0.705720000000     0.360650000000     0.898830000000     0.0434263  
H628     H      0.805520000000     0.418670000000     0.872700000000     0.043389   
H629     H      0.807470000000     0.360390000000     0.886870000000     0.043091   
H630     H      0.790740000000     0.385140000000     0.917680000000     0.0387189  
H631     H      0.703470000000     0.416620000000     0.880700000000     0.0433406  
H632     H      0.729090000000     0.386400000000     0.923770000000     0.0391707  
H633     H      0.780810000000     0.144950000000     0.833760000000     0.0380714  
H634     H      0.718740000000     0.147810000000     0.832710000000     0.0384047  
H635     H      0.698570000000     0.110960000000     0.872340000000     0.0430469  
H636     H      0.801640000000     0.168210000000     0.863120000000     0.0430545  
H637     H      0.800780000000     0.111330000000     0.877300000000     0.043526   
H638     H      0.780300000000     0.135000000000     0.906570000000     0.0404896  
H639     H      0.699240000000     0.170460000000     0.863460000000     0.0430488  
H640     H      0.715740000000     0.133320000000     0.904640000000     0.0395392  
H641     H      0.979270000000     0.215180000000     0.766780000000     0.0424765  
H642     H      0.935580000000     0.261950000000     0.761600000000     0.0398268  
H643     H      0.958060000000     0.306760000000     0.789260000000     0.0393698  
H644     H      0.509320000000     0.214040000000     0.735880000000     0.0405028  
H645     H      0.530720000000     0.235050000000     0.787400000000     0.03949    
H646     H      0.532170000000     0.264580000000     0.755890000000     0.0413789  
H647     H      0.942730000000     0.291440000000     0.731360000000     0.0403541  
H648     H      0.488350000000     0.311480000000     0.759410000000     0.0393845  
H649     H      0.539440000000     0.018440000000     0.748720000000     0.0428695  
H650     H      0.991940000000     0.062420000000     0.751980000000     0.0386876  
H651     H      0.951380000000     0.042580000000     0.716940000000     0.0396126  
H652     H      0.536500000000     0.485820000000     0.776820000000     0.0400765  
H653     H      0.522240000000     0.469180000000     0.721320000000     0.0396649  
H654     H      0.489130000000     0.465310000000     0.748630000000     0.0414669  
H655     H      0.959190000000     0.052470000000     0.777490000000     0.040399   
H656     H      0.943080000000     0.509740000000     0.743060000000     0.0388471  
H657     H      0.532400000000     0.391300000000     0.914500000000     0.0393284  
H658     H      0.969860000000     0.391840000000     0.916780000000     0.0391277  
H659     H      0.948260000000     0.419840000000     0.870130000000     0.043061   
H660     H      0.551200000000     0.363780000000     0.887580000000     0.0431821  
H661     H      0.550720000000     0.419390000000     0.866520000000     0.0431764  
H662     H      0.529820000000     0.392060000000     0.841080000000     0.039038   
H663     H      0.948750000000     0.364460000000     0.891500000000     0.043956   
H664     H      0.967140000000     0.392240000000     0.843290000000     0.0386036  
H665     H      0.528830000000     0.150860000000     0.840290000000     0.0383644  
H666     H      0.465590000000     0.150340000000     0.843730000000     0.0387762  
H667     H      0.948700000000     0.112080000000     0.884050000000     0.0434212  
H668     H      0.549900000000     0.171870000000     0.871080000000     0.0433989  
H669     H      0.550870000000     0.112990000000     0.878300000000     0.0431548  
H670     H      0.033200000000     0.133630000000     0.911530000000     0.0400813  
H671     H      0.947720000000     0.170990000000     0.876880000000     0.0427246  
H672     H      0.969550000000     0.133100000000     0.915030000000     0.0388863  
H673     H      0.749410000000     0.280100000000     0.251240000000     0.0400399  
H674     H      0.794500000000     0.233480000000     0.252300000000     0.0414417  
H675     H      0.775840000000     0.189010000000     0.285460000000     0.0391011  
H676     H      0.715310000000     0.272590000000     0.226700000000     0.0410721  
H677     H      0.706550000000     0.263960000000     0.286190000000     0.0403998  
H678     H      0.697920000000     0.230080000000     0.261500000000     0.039461   
H679     H      0.786750000000     0.199790000000     0.226630000000     0.0382491  
H680     H      0.741600000000     0.183510000000     0.259990000000     0.0411366  
H681     H      0.786670000000     0.289820000000     0.012590000000     0.0395565  
H682     H      0.723350000000     0.290630000000     0.012510000000     0.0393503  
H683     H      0.702930000000     0.250460000000     0.975610000000     0.0431512  
H684     H      0.805750000000     0.258200000000     0.034250000000     0.0430223  
H685     H      0.805360000000     0.249550000000     0.975000000000     0.0433118  
H686     H      0.785530000000     0.218580000000     0.996840000000     0.0390995  
H687     H      0.703340000000     0.259890000000     0.034510000000     0.0434039  
H688     H      0.722510000000     0.219240000000     0.997420000000     0.0395258  
H689     H      0.799900000000     0.997120000000     0.249570000000     0.0461054  
H690     H      0.753520000000     0.451910000000     0.248250000000     0.0392311  
H691     H      0.713220000000     0.470210000000     0.284610000000     0.0403304  
H692     H      0.794490000000     0.030080000000     0.222290000000     0.040348   
H693     H      0.782600000000     0.044950000000     0.279090000000     0.0391532  
H694     H      0.748330000000     0.048890000000     0.253320000000     0.0405502  
H695     H      0.719500000000     0.460870000000     0.224090000000     0.0404339  
H696     H      0.703610000000     0.503260000000     0.259220000000     0.0391379  
H697     H      0.723790000000     0.043360000000     0.998590000000     0.0395312  
H698     H      0.786870000000     0.041190000000     0.997230000000     0.0394662  
H699     H      0.805490000000     0.996140000000     0.028790000000     0.0435607  
H700     H      0.702640000000     0.516000000000     0.973360000000     0.0433665  
H701     H      0.703170000000     0.499620000000     0.030770000000     0.0431259  
H702     H      0.721190000000     0.470730000000     0.004750000000     0.0393804  
H703     H      0.804970000000     0.012310000000     0.971270000000     0.0429177  
H704     H      0.784600000000     0.468570000000     0.003580000000     0.0393776  
H705     H      0.788480000000     0.366380000000     0.172230000000     0.0386136  
H706     H      0.726430000000     0.369180000000     0.169880000000     0.0384175  
H707     H      0.707250000000     0.398630000000     0.122740000000     0.0435365  
H708     H      0.808460000000     0.340990000000     0.144080000000     0.0431276  
H709     H      0.809520000000     0.399290000000     0.129410000000     0.0431355  
H710     H      0.792250000000     0.374160000000     0.099270000000     0.0394766  
H711     H      0.706010000000     0.343380000000     0.142440000000     0.0431247  
H712     H      0.728630000000     0.372420000000     0.096480000000     0.0403028  
H713     H      0.779430000000     0.126980000000     0.084750000000     0.0389509  
H714     H      0.717230000000     0.128130000000     0.090460000000     0.03855    
H715     H      0.702260000000     0.091160000000     0.132390000000     0.0429264  
H716     H      0.802480000000     0.150610000000     0.112010000000     0.0433044  
H717     H      0.804340000000     0.093460000000     0.125590000000     0.0428675  
H718     H      0.786720000000     0.116600000000     0.157120000000     0.0391874  
H719     H      0.700670000000     0.150450000000     0.123170000000     0.0429388  
H720     H      0.722700000000     0.113980000000     0.162330000000     0.0392519  
H721     H      0.004010000000     0.279040000000     0.251350000000     0.0429053  
H722     H      0.551510000000     0.235440000000     0.254590000000     0.0413996  
H723     H      0.536910000000     0.192470000000     0.291670000000     0.0381193  
H724     H      0.969410000000     0.267560000000     0.229180000000     0.0415968  
H725     H      0.964070000000     0.263740000000     0.289710000000     0.0398853  
H726     H      0.955640000000     0.227720000000     0.268340000000     0.0385915  
H727     H      0.545210000000     0.199390000000     0.231920000000     0.0392579  
H728     H      0.502240000000     0.183000000000     0.268070000000     0.0416478  
H729     H      0.969950000000     0.282440000000     0.009780000000     0.0391386  
H730     H      0.533740000000     0.284070000000     0.008180000000     0.0395405  
H731     H      0.554870000000     0.237280000000     0.035460000000     0.0432338  
H732     H      0.950670000000     0.255970000000     0.982170000000     0.0434304  
H733     H      0.952540000000     0.234670000000     0.038000000000     0.0433193  
H734     H      0.972330000000     0.209530000000     0.009500000000     0.0386151  
H735     H      0.552950000000     0.258560000000     0.979620000000     0.0432832  
H736     H      0.535020000000     0.211130000000     0.007950000000     0.0391947  
H737     H      0.011970000000     0.447860000000     0.242280000000     0.0403265  
H738     H      0.964180000000     0.992470000000     0.242160000000     0.0458212  
H739     H      0.980570000000     0.041320000000     0.270490000000     0.0392284  
H740     H      0.545780000000     0.457310000000     0.218060000000     0.04071    
H741     H      0.551380000000     0.468240000000     0.278440000000     0.0399962  
H742     H      0.560380000000     0.500820000000     0.252220000000     0.0385741  
H743     H      0.969350000000     0.024670000000     0.213950000000     0.0394367  
H744     H      0.514910000000     0.045150000000     0.244790000000     0.0402887  
H745     H      0.968500000000     0.028260000000     0.000290000000     0.0394265  
H746     H      0.531720000000     0.031880000000     0.999700000000     0.0400633  
H747     H      0.554690000000     0.983010000000     0.022070000000     0.0432889  
H748     H      0.949980000000     0.503860000000     0.970250000000     0.0432313  
H749     H      0.952300000000     0.477260000000     0.023720000000     0.0434736  
H750     H      0.973540000000     0.455810000000     0.993270000000     0.0384314  
H751     H      0.552390000000     0.010140000000     0.969080000000     0.0432895  
H752     H      0.534990000000     0.459380000000     0.992160000000     0.0392269  
H753     H      0.535040000000     0.362860000000     0.091690000000     0.0396023  
H754     H      0.971320000000     0.362720000000     0.095780000000     0.039409   
H755     H      0.955180000000     0.329300000000     0.140630000000     0.0434129  
H756     H      0.556100000000     0.387410000000     0.119770000000     0.0435092  
H757     H      0.557400000000     0.329930000000     0.134110000000     0.0427433  
H758     H      0.539300000000     0.354220000000     0.164540000000     0.0387655  
H759     H      0.953920000000     0.386970000000     0.126610000000     0.0433536  
H760     H      0.976610000000     0.353750000000     0.168470000000     0.037693   
H761     H      0.474240000000     0.106380000000     0.087770000000     0.0389591  
H762     H      0.536820000000     0.105950000000     0.087850000000     0.0389923  
H763     H      0.556850000000     0.136350000000     0.133430000000     0.0435309  
H764     H      0.954070000000     0.080430000000     0.115270000000     0.0427795  
H765     H      0.954370000000     0.136950000000     0.133300000000     0.0430521  
H766     H      0.973760000000     0.110720000000     0.161150000000     0.0382447  
H767     H      0.556570000000     0.079790000000     0.115450000000     0.0427552  
H768     H      0.037100000000     0.110390000000     0.161170000000     0.0394686  
H769     H      0.849200000000     0.716540000000     0.669640000000     0.0388916  
H770     H      0.849650000000     0.780850000000     0.663660000000     0.0395901  
H771     H      0.886010000000     0.795760000000     0.620760000000     0.0435294  
H772     H      0.827070000000     0.694870000000     0.640100000000     0.0433031  
H773     H      0.885550000000     0.693570000000     0.630680000000     0.0429397  
H774     H      0.863670000000     0.710530000000     0.597910000000     0.0390107  
H775     H      0.827630000000     0.796980000000     0.630520000000     0.0429501  
H776     H      0.863800000000     0.773110000000     0.591980000000     0.038983   
H777     H      0.601860000000     0.718420000000     0.681670000000     0.0383512  
H778     H      0.601850000000     0.780470000000     0.676170000000     0.0384626  
H779     H      0.634190000000     0.796800000000     0.630520000000     0.0434011  
H780     H      0.577220000000     0.695740000000     0.655020000000     0.0432545  
H781     H      0.634520000000     0.694520000000     0.639910000000     0.04348    
H782     H      0.609750000000     0.710940000000     0.609030000000     0.0400305  
H783     H      0.577070000000     0.798090000000     0.645900000000     0.0429209  
H784     H      0.609430000000     0.774940000000     0.603260000000     0.0399066  
H785     H      0.861780000000     0.528810000000     0.572350000000     0.0381922  
H786     H      0.860470000000     0.967220000000     0.577620000000     0.0383878  
H787     H      0.900380000000     0.951270000000     0.615720000000     0.0429117  
H788     H      0.840630000000     0.552280000000     0.601270000000     0.0431169  
H789     H      0.898660000000     0.553310000000     0.609690000000     0.0430821  
H790     H      0.877820000000     0.537070000000     0.643520000000     0.040014   
H791     H      0.840610000000     0.950160000000     0.611650000000     0.0427349  
H792     H      0.880130000000     0.970480000000     0.648230000000     0.0408218  
H793     H      0.627790000000     0.975810000000     0.600350000000     0.0421609  
H794     H      0.630850000000     0.542680000000     0.601860000000     0.0401129  
H795     H      0.590460000000     0.559270000000     0.639140000000     0.0428994  
H796     H      0.648520000000     0.956360000000     0.632500000000     0.043163   
H797     H      0.590770000000     0.956680000000     0.641270000000     0.0429502  
H798     H      0.611850000000     0.977830000000     0.672010000000     0.0382566  
H799     H      0.650600000000     0.558460000000     0.636450000000     0.0431221  
H800     H      0.609820000000     0.539700000000     0.672060000000     0.0380313  
H801     H      0.774100000000     0.767210000000     0.501510000000     0.039355   
H802     H      0.771780000000     0.703780000000     0.504950000000     0.03923    
H803     H      0.729030000000     0.688180000000     0.540730000000     0.0431638  
H804     H      0.745550000000     0.786530000000     0.476140000000     0.0432841  
H805     H      0.732070000000     0.790570000000     0.534010000000     0.0432692  
H806     H      0.702060000000     0.770460000000     0.511110000000     0.0394956  
H807     H      0.741340000000     0.684130000000     0.482230000000     0.0431585  
H808     H      0.699900000000     0.706910000000     0.515600000000     0.0393593  
H809     H      0.713970000000     0.537270000000     0.496580000000     0.0395696  
H810     H      0.714180000000     0.475460000000     0.495530000000     0.0394009  
H811     H      0.764590000000     0.955260000000     0.473470000000     0.0431328  
H812     H      0.735930000000     0.557400000000     0.527440000000     0.0432454  
H813     H      0.764110000000     0.558230000000     0.474790000000     0.0432745  
H814     H      0.786270000000     0.037490000000     0.505090000000     0.0389624  
H815     H      0.736090000000     0.954450000000     0.525830000000     0.0431033  
H816     H      0.786450000000     0.975440000000     0.504370000000     0.0404218  
H817     H      0.522590000000     0.706390000000     0.520620000000     0.0393373  
H818     H      0.523160000000     0.769560000000     0.516570000000     0.0395673  
H819     H      0.481510000000     0.787570000000     0.480090000000     0.0434947  
H820     H      0.992240000000     0.688440000000     0.544810000000     0.043589   
H821     H      0.981050000000     0.685020000000     0.486110000000     0.0423779  
H822     H      0.950940000000     0.706150000000     0.507930000000     0.0393243  
H823     H      0.493310000000     0.790970000000     0.538490000000     0.0431696  
H824     H      0.951420000000     0.769350000000     0.504420000000     0.0391803  
H825     H      0.860710000000     0.700290000000     0.415750000000     0.0399996  
H826     H      0.860440000000     0.764980000000     0.411070000000     0.0399759  
H827     H      0.897070000000     0.780930000000     0.368860000000     0.0430618  
H828     H      0.838820000000     0.679140000000     0.385570000000     0.0432387  
H829     H      0.897220000000     0.678490000000     0.376170000000     0.0428584  
H830     H      0.875300000000     0.696320000000     0.343850000000     0.0382801  
H831     H      0.838560000000     0.781440000000     0.378060000000     0.0432705  
H832     H      0.875270000000     0.758700000000     0.339440000000     0.0379678  
H833     H      0.620960000000     0.695840000000     0.356800000000     0.0397993  
H834     H      0.621370000000     0.759910000000     0.351200000000     0.0391483  
H835     H      0.588530000000     0.783060000000     0.393310000000     0.0430304  
H836     H      0.645470000000     0.679180000000     0.387830000000     0.0430871  
H837     H      0.588160000000     0.680760000000     0.402670000000     0.0435573  
H838     H      0.612780000000     0.703290000000     0.429470000000     0.0390314  
H839     H      0.645960000000     0.781430000000     0.378790000000     0.0434315  
H840     H      0.612870000000     0.765520000000     0.423940000000     0.0391151  
H841     H      0.965430000000     0.975640000000     0.489370000000     0.0406081  
H842     H      0.966360000000     0.539400000000     0.489230000000     0.0396113  
H843     H      0.506360000000     0.557820000000     0.526930000000     0.0433227  
H844     H      0.996030000000     0.955690000000     0.467170000000     0.0427595  
H845     H      0.005620000000     0.955230000000     0.526070000000     0.0435592  
H846     H      0.536700000000     0.974680000000     0.504100000000     0.0402676  
H847     H      0.497950000000     0.558260000000     0.467490000000     0.043122   
H848     H      0.537410000000     0.538320000000     0.504970000000     0.0396047  
H849     H      0.873660000000     0.969970000000     0.397810000000     0.0403267  
H850     H      0.876670000000     0.036020000000     0.398960000000     0.0406623  
H851     H      0.910630000000     0.555570000000     0.355430000000     0.0430275  
H852     H      0.851550000000     0.953580000000     0.365000000000     0.0430052  
H853     H      0.911260000000     0.952950000000     0.357670000000     0.0424741  
H854     H      0.889540000000     0.472390000000     0.326210000000     0.038077   
H855     H      0.853720000000     0.555860000000     0.368650000000     0.0434544  
H856     H      0.887440000000     0.534400000000     0.326290000000     0.0377519  
H857     H      0.623900000000     0.541200000000     0.346590000000     0.0400386  
H858     H      0.626030000000     0.975300000000     0.351780000000     0.0404054  
H859     H      0.660730000000     0.960040000000     0.396240000000     0.0429163  
H860     H      0.601840000000     0.560940000000     0.377540000000     0.0433211  
H861     H      0.661240000000     0.562100000000     0.385260000000     0.0429284  
H862     H      0.639470000000     0.545310000000     0.418210000000     0.0380875  
H863     H      0.603340000000     0.958800000000     0.384240000000     0.0431427  
H864     H      0.637910000000     0.983560000000     0.423790000000     0.0392448  
H865     H      0.789360000000     0.770130000000     0.750690000000     0.0410634  
H866     H      0.743710000000     0.813600000000     0.754630000000     0.0395936  
H867     H      0.697760000000     0.791080000000     0.728740000000     0.0398211  
H868     H      0.790760000000     0.740470000000     0.782040000000     0.0409137  
H869     H      0.769450000000     0.718390000000     0.730760000000     0.0391796  
H870     H      0.740430000000     0.717010000000     0.762660000000     0.0416239  
H871     H      0.714370000000     0.808350000000     0.785410000000     0.0398058  
H872     H      0.693560000000     0.761500000000     0.759460000000     0.0403022  
H873     H      0.752790000000     0.558140000000     0.755930000000     0.0390786  
H874     H      0.706110000000     0.512460000000     0.754560000000     0.0420419  
H875     H      0.722010000000     0.966130000000     0.721950000000     0.0406091  
H876     H      0.788080000000     0.547470000000     0.777280000000     0.0407501  
H877     H      0.790050000000     0.541940000000     0.715780000000     0.0406309  
H878     H      0.801870000000     0.007790000000     0.738560000000     0.0378078  
H879     H      0.713230000000     0.978330000000     0.779890000000     0.0390303  
H880     H      0.757730000000     0.961390000000     0.745460000000     0.042278   
H881     H      0.784860000000     0.893500000000     0.844920000000     0.0400234  
H882     H      0.720880000000     0.891170000000     0.850900000000     0.0399147  
H883     H      0.705720000000     0.860650000000     0.898830000000     0.0435345  
H884     H      0.805520000000     0.918670000000     0.872700000000     0.0438987  
H885     H      0.807470000000     0.860390000000     0.886870000000     0.0432087  
H886     H      0.790740000000     0.885140000000     0.917680000000     0.0389687  
H887     H      0.703470000000     0.916620000000     0.880700000000     0.0437868  
H888     H      0.729090000000     0.886400000000     0.923770000000     0.039416   
H889     H      0.780810000000     0.644950000000     0.833760000000     0.0380756  
H890     H      0.718740000000     0.647810000000     0.832710000000     0.0384182  
H891     H      0.698570000000     0.610950000000     0.872340000000     0.0431551  
H892     H      0.801640000000     0.668210000000     0.863120000000     0.0430626  
H893     H      0.800780000000     0.611330000000     0.877300000000     0.0436007  
H894     H      0.780300000000     0.635000000000     0.906570000000     0.0405325  
H895     H      0.699240000000     0.670460000000     0.863460000000     0.0430621  
H896     H      0.715740000000     0.633320000000     0.904640000000     0.0395986  
H897     H      0.979270000000     0.715180000000     0.766780000000     0.0424646  
H898     H      0.935580000000     0.761950000000     0.761600000000     0.0398323  
H899     H      0.958060000000     0.806760000000     0.789260000000     0.0394441  
H900     H      0.509320000000     0.714040000000     0.735880000000     0.0404946  
H901     H      0.530720000000     0.735050000000     0.787400000000     0.0394863  
H902     H      0.532170000000     0.764580000000     0.755890000000     0.0413909  
H903     H      0.942730000000     0.791440000000     0.731360000000     0.0404044  
H904     H      0.488350000000     0.811480000000     0.759410000000     0.0394606  
H905     H      0.539440000000     0.518440000000     0.748720000000     0.0415909  
H906     H      0.991940000000     0.562420000000     0.751980000000     0.0385745  
H907     H      0.951380000000     0.542580000000     0.716940000000     0.0397501  
H908     H      0.536500000000     0.985830000000     0.776820000000     0.0450478  
H909     H      0.522240000000     0.969180000000     0.721320000000     0.0387393  
H910     H      0.489130000000     0.965310000000     0.748630000000     0.0407678  
H911     H      0.959190000000     0.552470000000     0.777490000000     0.0404503  
H912     H      0.943080000000     0.009740000000     0.743060000000     0.0378364  
H913     H      0.532400000000     0.891300000000     0.914500000000     0.0396052  
H914     H      0.969860000000     0.891840000000     0.916780000000     0.0394169  
H915     H      0.948260000000     0.919840000000     0.870130000000     0.0435765  
H916     H      0.551200000000     0.863780000000     0.887580000000     0.0432981  
H917     H      0.550720000000     0.919390000000     0.866520000000     0.0436204  
H918     H      0.529820000000     0.892060000000     0.841080000000     0.0392265  
H919     H      0.948750000000     0.864460000000     0.891500000000     0.0440839  
H920     H      0.967140000000     0.892240000000     0.843290000000     0.0388409  
H921     H      0.528830000000     0.650860000000     0.840290000000     0.0383746  
H922     H      0.465590000000     0.650340000000     0.843730000000     0.0387785  
H923     H      0.948700000000     0.612080000000     0.884050000000     0.0435021  
H924     H      0.549900000000     0.671870000000     0.871080000000     0.0434132  
H925     H      0.550870000000     0.612990000000     0.878300000000     0.0432494  
H926     H      0.033200000000     0.633630000000     0.911530000000     0.0401356  
H927     H      0.947720000000     0.670990000000     0.876880000000     0.0427345  
H928     H      0.969550000000     0.633100000000     0.915030000000     0.0389366  
H929     H      0.749410000000     0.780100000000     0.251240000000     0.0400373  
H930     H      0.794500000000     0.733480000000     0.252300000000     0.0414386  
H931     H      0.775840000000     0.689010000000     0.285460000000     0.0391132  
H932     H      0.715310000000     0.772590000000     0.226700000000     0.0410728  
H933     H      0.706550000000     0.763960000000     0.286190000000     0.0403924  
H934     H      0.697920000000     0.730080000000     0.261500000000     0.0394641  
H935     H      0.786750000000     0.699790000000     0.226630000000     0.0382801  
H936     H      0.741600000000     0.683510000000     0.259990000000     0.0411694  
H937     H      0.786670000000     0.789820000000     0.012590000000     0.0395864  
H938     H      0.723350000000     0.790630000000     0.012510000000     0.0393805  
H939     H      0.702930000000     0.750460000000     0.975610000000     0.0431673  
H940     H      0.805750000000     0.758200000000     0.034250000000     0.0430367  
H941     H      0.805360000000     0.749550000000     0.975000000000     0.043327   
H942     H      0.785530000000     0.718580000000     0.996840000000     0.0391301  
H943     H      0.703340000000     0.759890000000     0.034510000000     0.0434187  
H944     H      0.722510000000     0.719240000000     0.997420000000     0.0395569  
H945     H      0.799900000000     0.497120000000     0.249570000000     0.0415992  
H946     H      0.753520000000     0.951910000000     0.248250000000     0.0399058  
H947     H      0.713220000000     0.970210000000     0.284610000000     0.0393608  
H948     H      0.794490000000     0.530080000000     0.222290000000     0.039704   
H949     H      0.782600000000     0.544950000000     0.279090000000     0.0399735  
H950     H      0.748330000000     0.548890000000     0.253320000000     0.0414144  
H951     H      0.719500000000     0.960870000000     0.224090000000     0.0413628  
H952     H      0.703610000000     0.003260000000     0.259220000000     0.0346011  
H953     H      0.723790000000     0.543360000000     0.998590000000     0.0393633  
H954     H      0.786870000000     0.541190000000     0.997230000000     0.0393068  
H955     H      0.805490000000     0.496140000000     0.028790000000     0.0433507  
H956     H      0.702640000000     0.016000000000     0.973360000000     0.0432312  
H957     H      0.703170000000     0.999620000000     0.030770000000     0.0433746  
H958     H      0.721190000000     0.970730000000     0.004750000000     0.0392434  
H959     H      0.804970000000     0.512310000000     0.971270000000     0.0430816  
H960     H      0.784600000000     0.968570000000     0.003580000000     0.0392239  
H961     H      0.788480000000     0.866380000000     0.172230000000     0.0386514  
H962     H      0.726430000000     0.869180000000     0.169880000000     0.038457   
H963     H      0.707250000000     0.898630000000     0.122740000000     0.0436522  
H964     H      0.808460000000     0.840990000000     0.144080000000     0.0431556  
H965     H      0.809520000000     0.899290000000     0.129410000000     0.0432553  
H966     H      0.792250000000     0.874160000000     0.099270000000     0.0395337  
H967     H      0.706010000000     0.843380000000     0.142440000000     0.0431585  
H968     H      0.728630000000     0.872420000000     0.096480000000     0.0403523  
H969     H      0.779430000000     0.626980000000     0.084750000000     0.0391592  
H970     H      0.717230000000     0.628130000000     0.090460000000     0.0387558  
H971     H      0.702260000000     0.591160000000     0.132390000000     0.0433431  
H972     H      0.802480000000     0.650610000000     0.112010000000     0.0433801  
H973     H      0.804340000000     0.593460000000     0.125590000000     0.0432751  
H974     H      0.786720000000     0.616600000000     0.157120000000     0.0393647  
H975     H      0.700670000000     0.650450000000     0.123170000000     0.043008   
H976     H      0.722700000000     0.613980000000     0.162330000000     0.0394322  
H977     H      0.004010000000     0.779040000000     0.251350000000     0.042901   
H978     H      0.551510000000     0.735440000000     0.254590000000     0.041404   
H979     H      0.536910000000     0.692470000000     0.291670000000     0.0380999  
H980     H      0.969410000000     0.767560000000     0.229180000000     0.0415968  
H981     H      0.964070000000     0.763750000000     0.289710000000     0.0398696  
H982     H      0.955640000000     0.727720000000     0.268340000000     0.0385921  
H983     H      0.545210000000     0.699390000000     0.231920000000     0.0392936  
H984     H      0.502240000000     0.683000000000     0.268070000000     0.0416451  
H985     H      0.969950000000     0.782440000000     0.009780000000     0.0391448  
H986     H      0.533740000000     0.784070000000     0.008180000000     0.0395448  
H987     H      0.554870000000     0.737280000000     0.035460000000     0.0432517  
H988     H      0.950670000000     0.755970000000     0.982170000000     0.0434438  
H989     H      0.952540000000     0.734670000000     0.038000000000     0.0433265  
H990     H      0.972330000000     0.709530000000     0.009500000000     0.0386308  
H991     H      0.552950000000     0.758560000000     0.979620000000     0.0432951  
H992     H      0.535020000000     0.711130000000     0.007950000000     0.0392247  
H993     H      0.011970000000     0.947860000000     0.242280000000     0.040976   
H994     H      0.964180000000     0.492470000000     0.242160000000     0.0413634  
H995     H      0.980570000000     0.541320000000     0.270490000000     0.0400513  
H996     H      0.545780000000     0.957310000000     0.218060000000     0.0416416  
H997     H      0.551380000000     0.968240000000     0.278440000000     0.0390452  
H998     H      0.560380000000     0.000820000000     0.252220000000     0.0340461  
H999     H      0.969350000000     0.524670000000     0.213950000000     0.0388099  
H1000    H      0.514910000000     0.545150000000     0.244790000000     0.041144   
H1001    H      0.968500000000     0.528260000000     0.000290000000     0.0393194  
H1002    H      0.531720000000     0.531880000000     0.999700000000     0.0399538  
H1003    H      0.554690000000     0.483010000000     0.022070000000     0.0431639  
H1004    H      0.949980000000     0.003860000000     0.970250000000     0.0430328  
H1005    H      0.952300000000     0.977260000000     0.023720000000     0.0435259  
H1006    H      0.973540000000     0.955810000000     0.993270000000     0.0382848  
H1007    H      0.552390000000     0.510140000000     0.969080000000     0.0434177  
H1008    H      0.534990000000     0.959380000000     0.992160000000     0.0391112  
H1009    H      0.535040000000     0.862860000000     0.091690000000     0.0396282  
H1010    H      0.971320000000     0.862720000000     0.095780000000     0.0394436  
H1011    H      0.955180000000     0.829300000000     0.140630000000     0.043422   
H1012    H      0.556100000000     0.887410000000     0.119770000000     0.0435992  
H1013    H      0.557400000000     0.829930000000     0.134110000000     0.0427585  
H1014    H      0.539300000000     0.854220000000     0.164540000000     0.0387937  
H1015    H      0.953920000000     0.886970000000     0.126610000000     0.0434444  
H1016    H      0.976610000000     0.853750000000     0.168470000000     0.0377169  
H1017    H      0.474240000000     0.606380000000     0.087770000000     0.0391681  
H1018    H      0.536820000000     0.605950000000     0.087850000000     0.0392126  
H1019    H      0.556850000000     0.636350000000     0.133430000000     0.0436332  
H1020    H      0.954070000000     0.580430000000     0.115270000000     0.0432312  
H1021    H      0.954370000000     0.636950000000     0.133300000000     0.043164   
H1022    H      0.973760000000     0.610720000000     0.161150000000     0.0384589  
H1023    H      0.556570000000     0.579790000000     0.115450000000     0.0432128  
H1024    H      0.037100000000     0.610390000000     0.161170000000     0.0396703  
N1       N      0.389310000000     0.244510000000     0.624760000000    -0.170198   
N2       N      0.323860000000     0.246230000000     0.637720000000    -0.170336   
N3       N      0.137640000000     0.245430000000     0.632850000000    -0.17043    
N4       N      0.073740000000     0.247010000000     0.651150000000    -0.170593   
N5       N      0.402990000000     0.002540000000     0.616780000000    -0.171596   
N6       N      0.337180000000     0.501150000000     0.606600000000    -0.171018   
N7       N      0.087150000000     0.008070000000     0.640110000000    -0.171817   
N8       N      0.153080000000     0.507570000000     0.630300000000    -0.170278   
N9       N      0.228690000000     0.239640000000     0.540790000000    -0.17053    
N10      N      0.245160000000     0.235040000000     0.475770000000    -0.170404   
N11      N      0.265330000000     0.006790000000     0.470840000000    -0.172859   
N12      N      0.235230000000     0.505880000000     0.529970000000    -0.171714   
N13      N      0.979920000000     0.236060000000     0.479590000000    -0.170827   
N14      N      0.994140000000     0.239920000000     0.545160000000    -0.16968    
N15      N      0.400610000000     0.229630000000     0.371900000000    -0.170787   
N16      N      0.335230000000     0.230490000000     0.384400000000    -0.170456   
N17      N      0.084890000000     0.232050000000     0.398850000000    -0.170146   
N18      N      0.149020000000     0.230010000000     0.380900000000    -0.170292   
N19      N      0.007620000000     0.006500000000     0.530140000000    -0.170861   
N20      N      0.995260000000     0.507040000000     0.463690000000    -0.168265   
N21      N      0.414430000000     0.504180000000     0.356260000000    -0.170524   
N22      N      0.349290000000     0.004580000000     0.370570000000    -0.17137    
N23      N      0.164450000000     0.011160000000     0.390990000000    -0.171934   
N24      N      0.099250000000     0.509630000000     0.377150000000    -0.170212   
N25      N      0.231600000000     0.252660000000     0.727950000000    -0.171411   
N26      N      0.253750000000     0.275700000000     0.786070000000    -0.171192   
N27      N      0.257440000000     0.502490000000     0.716170000000    -0.170785   
N28      N      0.248750000000     0.514990000000     0.781220000000    -0.170659   
N29      N      0.256740000000     0.357050000000     0.893490000000    -0.170314   
N30      N      0.254270000000     0.420930000000     0.874060000000    -0.170189   
N31      N      0.249460000000     0.107710000000     0.877460000000    -0.1702     
N32      N      0.250450000000     0.172830000000     0.862760000000    -0.170741   
N33      N      0.996220000000     0.272710000000     0.790370000000    -0.172577   
N34      N      0.974140000000     0.251020000000     0.731470000000    -0.170028   
N35      N      0.985330000000     0.004280000000     0.716740000000    -0.174948   
N36      N      0.999600000000     0.021150000000     0.779500000000    -0.171009   
N37      N      0.999430000000     0.422910000000     0.866800000000    -0.171973   
N38      N      0.000020000000     0.360790000000     0.890950000000    -0.166481   
N39      N      0.999970000000     0.108960000000     0.882880000000    -0.171301   
N40      N      0.998620000000     0.174980000000     0.872640000000    -0.171575   
N41      N      0.239980000000     0.225200000000     0.288340000000    -0.170895   
N42      N      0.252970000000     0.237880000000     0.224200000000    -0.170826   
N43      N      0.254100000000     0.248860000000     0.971750000000    -0.170408   
N44      N      0.254620000000     0.260430000000     0.037940000000    -0.170376   
N45      N      0.246540000000     0.009090000000     0.284340000000    -0.173463   
N46      N      0.258720000000     0.993600000000     0.220760000000    -0.168139   
N47      N      0.254300000000     0.995930000000     0.033110000000    -0.170811   
N48      N      0.253830000000     0.515820000000     0.968950000000    -0.170538   
N49      N      0.258600000000     0.402260000000     0.123940000000    -0.170522   
N50      N      0.257200000000     0.338750000000     0.144050000000    -0.17087    
N51      N      0.253490000000     0.088850000000     0.131370000000    -0.170595   
N52      N      0.251390000000     0.154040000000     0.116780000000    -0.170437   
N53      N      0.999080000000     0.226500000000     0.293310000000    -0.172445   
N54      N      0.008860000000     0.234930000000     0.227870000000    -0.169312   
N55      N      0.003830000000     0.234290000000     0.040050000000    -0.168864   
N56      N      0.001670000000     0.259870000000     0.977760000000    -0.168783   
N57      N      0.017180000000     0.506280000000     0.276930000000    -0.16898    
N58      N      0.005560000000     0.488630000000     0.213670000000    -0.170074   
N59      N      0.003610000000     0.979360000000     0.026240000000    -0.170614   
N60      N      0.000980000000     0.009250000000     0.966690000000    -0.169758   
N61      N      0.006460000000     0.326250000000     0.138610000000    -0.170203   
N62      N      0.004790000000     0.390500000000     0.121060000000    -0.169815   
N63      N      0.005590000000     0.139890000000     0.135230000000    -0.169946   
N64      N      0.005310000000     0.076780000000     0.114150000000    -0.170444   
N65      N      0.389310000000     0.744510000000     0.624760000000    -0.170202   
N66      N      0.323860000000     0.746230000000     0.637720000000    -0.170339   
N67      N      0.137640000000     0.745430000000     0.632850000000    -0.170435   
N68      N      0.073740000000     0.747010000000     0.651150000000    -0.170596   
N69      N      0.402990000000     0.502540000000     0.616780000000    -0.170436   
N70      N      0.337180000000     0.001150000000     0.606600000000    -0.172271   
N71      N      0.087150000000     0.508070000000     0.640110000000    -0.170599   
N72      N      0.153080000000     0.007570000000     0.630300000000    -0.17154    
N73      N      0.228690000000     0.739640000000     0.540790000000    -0.170515   
N74      N      0.245160000000     0.735040000000     0.475770000000    -0.170417   
N75      N      0.265330000000     0.506790000000     0.470840000000    -0.171625   
N76      N      0.235230000000     0.005880000000     0.529970000000    -0.172934   
N77      N      0.979920000000     0.736060000000     0.479590000000    -0.170826   
N78      N      0.994140000000     0.739920000000     0.545160000000    -0.169668   
N79      N      0.400610000000     0.729630000000     0.371900000000    -0.170785   
N80      N      0.335230000000     0.730490000000     0.384400000000    -0.170462   
N81      N      0.084890000000     0.732050000000     0.398850000000    -0.170139   
N82      N      0.149020000000     0.730010000000     0.380900000000    -0.1703     
N83      N      0.007620000000     0.506500000000     0.530140000000    -0.169613   
N84      N      0.995260000000     0.007040000000     0.463690000000    -0.169513   
N85      N      0.414430000000     0.004180000000     0.356260000000    -0.17179    
N86      N      0.349290000000     0.504580000000     0.370570000000    -0.170125   
N87      N      0.164450000000     0.511160000000     0.390990000000    -0.170698   
N88      N      0.099250000000     0.009630000000     0.377150000000    -0.171451   
N89      N      0.231600000000     0.752660000000     0.727950000000    -0.171414   
N90      N      0.253750000000     0.775700000000     0.786070000000    -0.17118    
N91      N      0.257440000000     0.002490000000     0.716170000000    -0.171745   
N92      N      0.248750000000     0.014990000000     0.781220000000    -0.173055   
N93      N      0.256740000000     0.857050000000     0.893490000000    -0.170298   
N94      N      0.254270000000     0.920930000000     0.874060000000    -0.169857   
N95      N      0.249460000000     0.607710000000     0.877460000000    -0.17024    
N96      N      0.250450000000     0.672830000000     0.862760000000    -0.170747   
N97      N      0.996220000000     0.772710000000     0.790370000000    -0.17257    
N98      N      0.974140000000     0.751020000000     0.731470000000    -0.170032   
N99      N      0.985330000000     0.504280000000     0.716740000000    -0.173126   
N100     N      0.999600000000     0.521150000000     0.779500000000    -0.171902   
N101     N      0.999430000000     0.922910000000     0.866800000000    -0.171638   
N102     N      0.000020000000     0.860790000000     0.890950000000    -0.166468   
N103     N      0.999970000000     0.608960000000     0.882880000000    -0.171344   
N104     N      0.998620000000     0.674980000000     0.872640000000    -0.171582   
N105     N      0.239980000000     0.725200000000     0.288340000000    -0.170949   
N106     N      0.252970000000     0.737880000000     0.224200000000    -0.170826   
N107     N      0.254100000000     0.748860000000     0.971750000000    -0.170405   
N108     N      0.254620000000     0.760430000000     0.037940000000    -0.17037    
N109     N      0.246540000000     0.509090000000     0.284340000000    -0.171171   
N110     N      0.258720000000     0.493600000000     0.220760000000    -0.171065   
N111     N      0.254300000000     0.495930000000     0.033110000000    -0.170416   
N112     N      0.253830000000     0.015820000000     0.968950000000    -0.170124   
N113     N      0.258600000000     0.902260000000     0.123940000000    -0.170556   
N114     N      0.257200000000     0.838750000000     0.144050000000    -0.170806   
N115     N      0.253490000000     0.588850000000     0.131370000000    -0.170283   
N116     N      0.251390000000     0.654030000000     0.116780000000    -0.170414   
N117     N      0.999080000000     0.726500000000     0.293310000000    -0.172464   
N118     N      0.008860000000     0.734930000000     0.227870000000    -0.169307   
N119     N      0.003830000000     0.734290000000     0.040050000000    -0.168862   
N120     N      0.001670000000     0.759870000000     0.977760000000    -0.168784   
N121     N      0.017180000000     0.006280000000     0.276930000000    -0.17122    
N122     N      0.005560000000     0.988630000000     0.213670000000    -0.167165   
N123     N      0.003610000000     0.479360000000     0.026240000000    -0.170159   
N124     N      0.000980000000     0.509250000000     0.966690000000    -0.17018    
N125     N      0.006460000000     0.826260000000     0.138610000000    -0.170125   
N126     N      0.004790000000     0.890500000000     0.121060000000    -0.169862   
N127     N      0.005590000000     0.639890000000     0.135230000000    -0.169931   
N128     N      0.005310000000     0.576780000000     0.114150000000    -0.170123   
N129     N      0.889310000000     0.244510000000     0.624760000000    -0.170158   
N130     N      0.823860000000     0.246230000000     0.637720000000    -0.170267   
N131     N      0.637640000000     0.245430000000     0.632850000000    -0.170453   
N132     N      0.573740000000     0.247010000000     0.651150000000    -0.170866   
N133     N      0.902990000000     0.002540000000     0.616780000000    -0.171556   
N134     N      0.837180000000     0.501150000000     0.606600000000    -0.171023   
N135     N      0.587150000000     0.008070000000     0.640110000000    -0.172031   
N136     N      0.653080000000     0.507570000000     0.630300000000    -0.170281   
N137     N      0.728690000000     0.239640000000     0.540790000000    -0.170542   
N138     N      0.745150000000     0.235040000000     0.475770000000    -0.170405   
N139     N      0.765330000000     0.006790000000     0.470840000000    -0.172865   
N140     N      0.735230000000     0.505880000000     0.529970000000    -0.171722   
N141     N      0.479920000000     0.236060000000     0.479590000000    -0.170336   
N142     N      0.494140000000     0.239920000000     0.545160000000    -0.170367   
N143     N      0.900610000000     0.229630000000     0.371900000000    -0.170764   
N144     N      0.835230000000     0.230490000000     0.384400000000    -0.17046    
N145     N      0.584890000000     0.232050000000     0.398850000000    -0.170429   
N146     N      0.649020000000     0.230010000000     0.380900000000    -0.170226   
N147     N      0.507620000000     0.006500000000     0.530140000000    -0.170775   
N148     N      0.495260000000     0.507040000000     0.463690000000    -0.169549   
N149     N      0.914430000000     0.504180000000     0.356260000000    -0.170755   
N150     N      0.849290000000     0.004580000000     0.370570000000    -0.171372   
N151     N      0.664450000000     0.011160000000     0.390990000000    -0.171946   
N152     N      0.599250000000     0.509630000000     0.377150000000    -0.170213   
N153     N      0.731600000000     0.252660000000     0.727950000000    -0.171391   
N154     N      0.753750000000     0.275700000000     0.786070000000    -0.171194   
N155     N      0.757440000000     0.502490000000     0.716170000000    -0.170783   
N156     N      0.748750000000     0.514990000000     0.781220000000    -0.17066    
N157     N      0.756740000000     0.357050000000     0.893490000000    -0.17026    
N158     N      0.754270000000     0.420930000000     0.874060000000    -0.170188   
N159     N      0.749460000000     0.107710000000     0.877460000000    -0.170247   
N160     N      0.750450000000     0.172830000000     0.862760000000    -0.17074    
N161     N      0.496220000000     0.272710000000     0.790370000000    -0.171079   
N162     N      0.474140000000     0.251020000000     0.731470000000    -0.170773   
N163     N      0.485330000000     0.004280000000     0.716740000000    -0.173106   
N164     N      0.499600000000     0.021150000000     0.779500000000    -0.170197   
N165     N      0.499420000000     0.422910000000     0.866800000000    -0.170717   
N166     N      0.500020000000     0.360790000000     0.890950000000    -0.170505   
N167     N      0.499970000000     0.108960000000     0.882880000000    -0.170281   
N168     N      0.498620000000     0.174980000000     0.872640000000    -0.170568   
N169     N      0.739980000000     0.225200000000     0.288340000000    -0.170888   
N170     N      0.752970000000     0.237880000000     0.224200000000    -0.170826   
N171     N      0.754100000000     0.248860000000     0.971750000000    -0.170438   
N172     N      0.754620000000     0.260430000000     0.037940000000    -0.170376   
N173     N      0.746540000000     0.009090000000     0.284340000000    -0.173465   
N174     N      0.758720000000     0.993600000000     0.220760000000    -0.16813    
N175     N      0.754300000000     0.995930000000     0.033110000000    -0.170814   
N176     N      0.753830000000     0.515820000000     0.968950000000    -0.170513   
N177     N      0.758600000000     0.402260000000     0.123940000000    -0.170523   
N178     N      0.757200000000     0.338750000000     0.144050000000    -0.170869   
N179     N      0.753490000000     0.088850000000     0.131370000000    -0.170588   
N180     N      0.751390000000     0.154040000000     0.116780000000    -0.170434   
N181     N      0.499090000000     0.226500000000     0.293310000000    -0.171106   
N182     N      0.508860000000     0.234930000000     0.227870000000    -0.170931   
N183     N      0.503830000000     0.234290000000     0.040050000000    -0.169888   
N184     N      0.501670000000     0.259870000000     0.977760000000    -0.169909   
N185     N      0.517180000000     0.506280000000     0.276930000000    -0.170897   
N186     N      0.505560000000     0.488630000000     0.213670000000    -0.170817   
N187     N      0.503610000000     0.979360000000     0.026240000000    -0.171646   
N188     N      0.500980000000     0.009250000000     0.966690000000    -0.170818   
N189     N      0.506460000000     0.326250000000     0.138610000000    -0.171203   
N190     N      0.504790000000     0.390500000000     0.121060000000    -0.170882   
N191     N      0.505590000000     0.139890000000     0.135230000000    -0.170949   
N192     N      0.505310000000     0.076780000000     0.114150000000    -0.171464   
N193     N      0.889310000000     0.744510000000     0.624760000000    -0.170162   
N194     N      0.823860000000     0.746230000000     0.637720000000    -0.17027    
N195     N      0.637640000000     0.745430000000     0.632850000000    -0.170457   
N196     N      0.573740000000     0.747010000000     0.651150000000    -0.170869   
N197     N      0.902990000000     0.502540000000     0.616780000000    -0.170397   
N198     N      0.837180000000     0.001150000000     0.606600000000    -0.172274   
N199     N      0.587150000000     0.508070000000     0.640110000000    -0.170811   
N200     N      0.653080000000     0.007570000000     0.630300000000    -0.171546   
N201     N      0.728690000000     0.739640000000     0.540790000000    -0.170527   
N202     N      0.745150000000     0.735040000000     0.475770000000    -0.170417   
N203     N      0.765330000000     0.506790000000     0.470840000000    -0.171631   
N204     N      0.735230000000     0.005880000000     0.529970000000    -0.172942   
N205     N      0.479920000000     0.736060000000     0.479590000000    -0.170335   
N206     N      0.494140000000     0.739920000000     0.545160000000    -0.170354   
N207     N      0.900610000000     0.729630000000     0.371900000000    -0.170762   
N208     N      0.835230000000     0.730490000000     0.384400000000    -0.170466   
N209     N      0.584890000000     0.732050000000     0.398850000000    -0.170422   
N210     N      0.649020000000     0.730010000000     0.380900000000    -0.170234   
N211     N      0.507620000000     0.506500000000     0.530140000000    -0.169522   
N212     N      0.495260000000     0.007040000000     0.463690000000    -0.170797   
N213     N      0.914430000000     0.004180000000     0.356260000000    -0.172019   
N214     N      0.849290000000     0.504580000000     0.370570000000    -0.17013    
N215     N      0.664450000000     0.511160000000     0.390990000000    -0.170708   
N216     N      0.599250000000     0.009630000000     0.377150000000    -0.171453   
N217     N      0.731600000000     0.752660000000     0.727950000000    -0.171395   
N218     N      0.753750000000     0.775700000000     0.786070000000    -0.171182   
N219     N      0.757440000000     0.002490000000     0.716170000000    -0.171742   
N220     N      0.748750000000     0.014990000000     0.781220000000    -0.173058   
N221     N      0.756740000000     0.857050000000     0.893490000000    -0.170244   
N222     N      0.754270000000     0.920930000000     0.874060000000    -0.169856   
N223     N      0.749460000000     0.607710000000     0.877460000000    -0.170287   
N224     N      0.750450000000     0.672830000000     0.862760000000    -0.170746   
N225     N      0.496220000000     0.772710000000     0.790370000000    -0.171072   
N226     N      0.474140000000     0.751020000000     0.731470000000    -0.170777   
N227     N      0.485330000000     0.504280000000     0.716740000000    -0.171271   
N228     N      0.499600000000     0.521150000000     0.779500000000    -0.171091   
N229     N      0.499420000000     0.922910000000     0.866800000000    -0.170384   
N230     N      0.500020000000     0.860790000000     0.890950000000    -0.170485   
N231     N      0.499970000000     0.608960000000     0.882880000000    -0.170322   
N232     N      0.498620000000     0.674980000000     0.872640000000    -0.170573   
N233     N      0.739980000000     0.725200000000     0.288340000000    -0.170942   
N234     N      0.752970000000     0.737880000000     0.224200000000    -0.170826   
N235     N      0.754100000000     0.748860000000     0.971750000000    -0.170434   
N236     N      0.754620000000     0.760430000000     0.037940000000    -0.17037    
N237     N      0.746540000000     0.509090000000     0.284340000000    -0.171171   
N238     N      0.758720000000     0.493600000000     0.220760000000    -0.171056   
N239     N      0.754300000000     0.495930000000     0.033110000000    -0.170418   
N240     N      0.753830000000     0.015820000000     0.968950000000    -0.170098   
N241     N      0.758600000000     0.902260000000     0.123940000000    -0.170558   
N242     N      0.757200000000     0.838750000000     0.144050000000    -0.170804   
N243     N      0.753490000000     0.588850000000     0.131370000000    -0.170276   
N244     N      0.751390000000     0.654030000000     0.116780000000    -0.170411   
N245     N      0.499090000000     0.726500000000     0.293310000000    -0.171124   
N246     N      0.508860000000     0.734930000000     0.227870000000    -0.170926   
N247     N      0.503830000000     0.734290000000     0.040050000000    -0.169886   
N248     N      0.501670000000     0.759870000000     0.977760000000    -0.169908   
N249     N      0.517180000000     0.006280000000     0.276930000000    -0.173139   
N250     N      0.505560000000     0.988630000000     0.213670000000    -0.167896   
N251     N      0.503610000000     0.479360000000     0.026240000000    -0.171193   
N252     N      0.500980000000     0.509250000000     0.966690000000    -0.171244   
N253     N      0.506460000000     0.826260000000     0.138610000000    -0.171125   
N254     N      0.504790000000     0.890500000000     0.121060000000    -0.170927   
N255     N      0.505590000000     0.639890000000     0.135230000000    -0.170935   
N256     N      0.505310000000     0.576780000000     0.114150000000    -0.171143   
Ni1      Ni     0.476580000000     0.484020000000     0.120330000000     1.00106    
Ni2      Ni     0.033060000000     0.483400000000     0.119770000000     1.00587    
Ni3      Ni     0.478000000000     0.233540000000     0.134990000000     1.00251    
Ni4      Ni     0.034460000000     0.232750000000     0.133540000000     1.00007    
Ni5      Ni     0.228070000000     0.994530000000     0.127800000000     1.00248    
Ni6      Ni     0.284470000000     0.496570000000     0.126480000000     0.998083   
Ni7      Ni     0.225930000000     0.247480000000     0.130800000000     1.00288    
Ni8      Ni     0.282350000000     0.245220000000     0.131120000000     0.992205   
Ni9      Ni     0.028140000000     0.515810000000     0.872790000000     1.00564    
Ni10     Ni     0.471660000000     0.016390000000     0.873250000000     0.992799   
Ni11     Ni     0.470860000000     0.268090000000     0.884700000000     0.992533   
Ni12     Ni     0.027300000000     0.267240000000     0.883040000000     1.00229    
Ni13     Ni     0.223380000000     0.513420000000     0.875720000000     0.997089   
Ni14     Ni     0.279780000000     0.515320000000     0.874160000000     0.996847   
Ni15     Ni     0.281940000000     0.263590000000     0.878830000000     1.00124    
Ni16     Ni     0.225520000000     0.265910000000     0.879220000000     0.994543   
Ni17     Ni     0.007570000000     0.478480000000     0.370310000000     0.997493   
Ni18     Ni     0.005420000000     0.035040000000     0.369790000000     0.994363   
Ni19     Ni     0.992100000000     0.259270000000     0.385020000000     1.00045    
Ni20     Ni     0.992970000000     0.202710000000     0.387940000000     0.986049   
Ni21     Ni     0.255300000000     0.479580000000     0.377260000000     0.999364   
Ni22     Ni     0.257700000000     0.036170000000     0.377640000000     0.997      
Ni23     Ni     0.242490000000     0.201740000000     0.383400000000     0.992884   
Ni24     Ni     0.241900000000     0.258290000000     0.380410000000     1.00302    
Ni25     Ni     0.996810000000     0.477220000000     0.623490000000     0.996896   
Ni26     Ni     0.994490000000     0.033790000000     0.623870000000     0.981958   
Ni27     Ni     0.981140000000     0.273930000000     0.636540000000     0.991045   
Ni28     Ni     0.481930000000     0.217410000000     0.639940000000     0.999911   
Ni29     Ni     0.246920000000     0.032620000000     0.623510000000     0.993512   
Ni30     Ni     0.244550000000     0.476030000000     0.622840000000     1.00463    
Ni31     Ni     0.230390000000     0.274240000000     0.632600000000     0.997738   
Ni32     Ni     0.231080000000     0.217740000000     0.636570000000     0.999674   
Ni33     Ni     0.476580000000     0.984020000000     0.120330000000     1.00505    
Ni34     Ni     0.033060000000     0.983400000000     0.119770000000     1.00988    
Ni35     Ni     0.478000000000     0.733540000000     0.134990000000     1.00249    
Ni36     Ni     0.034460000000     0.732750000000     0.133540000000     1.00005    
Ni37     Ni     0.228070000000     0.494530000000     0.127800000000     0.998387   
Ni38     Ni     0.284470000000     0.996570000000     0.126480000000     1.00219    
Ni39     Ni     0.225930000000     0.747480000000     0.130800000000     1.00285    
Ni40     Ni     0.282350000000     0.745220000000     0.131120000000     0.992184   
Ni41     Ni     0.028140000000     0.015810000000     0.872790000000     1.00158    
Ni42     Ni     0.471660000000     0.516390000000     0.873250000000     0.996699   
Ni43     Ni     0.470860000000     0.768090000000     0.884700000000     0.992526   
Ni44     Ni     0.027300000000     0.767240000000     0.883040000000     1.00227    
Ni45     Ni     0.223380000000     0.013420000000     0.875720000000     0.993088   
Ni46     Ni     0.279780000000     0.015320000000     0.874160000000     0.99298    
Ni47     Ni     0.281940000000     0.763590000000     0.878830000000     1.00123    
Ni48     Ni     0.225520000000     0.765910000000     0.879220000000     0.994534   
Ni49     Ni     0.007570000000     0.978480000000     0.370310000000     0.999776   
Ni50     Ni     0.005420000000     0.535040000000     0.369790000000     0.999311   
Ni51     Ni     0.992100000000     0.759270000000     0.385020000000     1.00027    
Ni52     Ni     0.992970000000     0.702720000000     0.387940000000     0.985921   
Ni53     Ni     0.255300000000     0.979580000000     0.377260000000     1.00167    
Ni54     Ni     0.257700000000     0.536170000000     0.377640000000     1.0019     
Ni55     Ni     0.242490000000     0.701740000000     0.383400000000     0.992895   
Ni56     Ni     0.241900000000     0.758290000000     0.380410000000     1.00301    
Ni57     Ni     0.996810000000     0.977220000000     0.623490000000     0.999236   
Ni58     Ni     0.994490000000     0.533790000000     0.623870000000     0.986859   
Ni59     Ni     0.981140000000     0.773930000000     0.636540000000     0.991065   
Ni60     Ni     0.481930000000     0.717410000000     0.639940000000     0.999838   
Ni61     Ni     0.246920000000     0.532620000000     0.623510000000     0.998406   
Ni62     Ni     0.244550000000     0.976030000000     0.622840000000     1.00693    
Ni63     Ni     0.230390000000     0.774240000000     0.632600000000     0.997743   
Ni64     Ni     0.231080000000     0.717740000000     0.636570000000     0.99961    
Ni65     Ni     0.976590000000     0.484020000000     0.120330000000     0.999225   
Ni66     Ni     0.533060000000     0.483400000000     0.119770000000     1.00209    
Ni67     Ni     0.978000000000     0.233540000000     0.134990000000     1.00069    
Ni68     Ni     0.534460000000     0.232750000000     0.133540000000     0.996114   
Ni69     Ni     0.728070000000     0.994530000000     0.127800000000     1.00257    
Ni70     Ni     0.784470000000     0.496570000000     0.126480000000     0.998048   
Ni71     Ni     0.725930000000     0.247480000000     0.130800000000     1.00292    
Ni72     Ni     0.782350000000     0.245220000000     0.131120000000     0.992206   
Ni73     Ni     0.528130000000     0.515810000000     0.872790000000     1.0031     
Ni74     Ni     0.971660000000     0.016390000000     0.873250000000     0.98953    
Ni75     Ni     0.970860000000     0.268090000000     0.884700000000     0.988982   
Ni76     Ni     0.527300000000     0.267240000000     0.883040000000     0.999995   
Ni77     Ni     0.723380000000     0.513420000000     0.875720000000     0.997153   
Ni78     Ni     0.779780000000     0.515320000000     0.874160000000     0.996912   
Ni79     Ni     0.781940000000     0.263590000000     0.878830000000     1.00129    
Ni80     Ni     0.725520000000     0.265910000000     0.879220000000     0.994537   
Ni81     Ni     0.507570000000     0.478480000000     0.370310000000     0.994697   
Ni82     Ni     0.505420000000     0.035040000000     0.369790000000     0.991433   
Ni83     Ni     0.492110000000     0.259270000000     0.385020000000     1.00348    
Ni84     Ni     0.492970000000     0.202710000000     0.387940000000     0.992752   
Ni85     Ni     0.755300000000     0.479580000000     0.377260000000     0.999364   
Ni86     Ni     0.757700000000     0.036170000000     0.377640000000     0.997025   
Ni87     Ni     0.742490000000     0.201740000000     0.383400000000     0.992957   
Ni88     Ni     0.741900000000     0.258290000000     0.380410000000     1.00282    
Ni89     Ni     0.496810000000     0.477220000000     0.623490000000     1.00283    
Ni90     Ni     0.494490000000     0.033790000000     0.623870000000     0.98771    
Ni91     Ni     0.481140000000     0.273930000000     0.636540000000     0.99414    
Ni92     Ni     0.981930000000     0.217410000000     0.639940000000     0.996675   
Ni93     Ni     0.746920000000     0.032620000000     0.623510000000     0.993534   
Ni94     Ni     0.744550000000     0.476030000000     0.622840000000     1.00463    
Ni95     Ni     0.730390000000     0.274240000000     0.632600000000     0.997738   
Ni96     Ni     0.731080000000     0.217740000000     0.636570000000     0.999699   
Ni97     Ni     0.976590000000     0.984020000000     0.120330000000     1.00321    
Ni98     Ni     0.533060000000     0.983400000000     0.119770000000     1.00613    
Ni99     Ni     0.978000000000     0.733540000000     0.134990000000     1.00067    
Ni100    Ni     0.534460000000     0.732750000000     0.133540000000     0.996092   
Ni101    Ni     0.728070000000     0.494530000000     0.127800000000     0.998476   
Ni102    Ni     0.784470000000     0.996570000000     0.126480000000     1.00215    
Ni103    Ni     0.725930000000     0.747480000000     0.130800000000     1.0029     
Ni104    Ni     0.782350000000     0.745220000000     0.131120000000     0.992184   
Ni105    Ni     0.528130000000     0.015810000000     0.872790000000     0.999027   
Ni106    Ni     0.971660000000     0.516390000000     0.873250000000     0.993408   
Ni107    Ni     0.970860000000     0.768090000000     0.884700000000     0.988976   
Ni108    Ni     0.527300000000     0.767240000000     0.883040000000     0.999984   
Ni109    Ni     0.723380000000     0.013420000000     0.875720000000     0.99315    
Ni110    Ni     0.779780000000     0.015320000000     0.874160000000     0.993049   
Ni111    Ni     0.781940000000     0.763590000000     0.878830000000     1.00128    
Ni112    Ni     0.725520000000     0.765910000000     0.879220000000     0.994528   
Ni113    Ni     0.507570000000     0.978480000000     0.370310000000     0.997006   
Ni114    Ni     0.505420000000     0.535040000000     0.369790000000     0.996398   
Ni115    Ni     0.492110000000     0.759270000000     0.385020000000     1.00329    
Ni116    Ni     0.492970000000     0.702720000000     0.387940000000     0.992629   
Ni117    Ni     0.755300000000     0.979580000000     0.377260000000     1.00167    
Ni118    Ni     0.757700000000     0.536170000000     0.377640000000     1.00193    
Ni119    Ni     0.742490000000     0.701740000000     0.383400000000     0.992968   
Ni120    Ni     0.741900000000     0.758290000000     0.380410000000     1.00281    
Ni121    Ni     0.496810000000     0.977220000000     0.623490000000     1.00515    
Ni122    Ni     0.494490000000     0.533790000000     0.623870000000     0.992642   
Ni123    Ni     0.481140000000     0.773930000000     0.636540000000     0.994158   
Ni124    Ni     0.981930000000     0.717410000000     0.639940000000     0.9966     
Ni125    Ni     0.746920000000     0.532620000000     0.623510000000     0.998429   
Ni126    Ni     0.744550000000     0.976030000000     0.622840000000     1.00694    
Ni127    Ni     0.730390000000     0.774240000000     0.632600000000     0.997743   
Ni128    Ni     0.731080000000     0.717740000000     0.636570000000     0.999635   
O1       O      0.478900000000     0.988060000000     0.166010000000    -0.450498   
O2       O      0.477900000000     0.480580000000     0.074640000000    -0.452839   
O3       O      0.478460000000     0.438400000000     0.123430000000    -0.450231   
O4       O      0.478630000000     0.029320000000     0.116820000000    -0.455818   
O5       O      0.031350000000     0.029000000000     0.118790000000    -0.456534   
O6       O      0.031120000000     0.438110000000     0.120340000000    -0.455646   
O7       O      0.030620000000     0.982580000000     0.073910000000    -0.452538   
O8       O      0.031580000000     0.483650000000     0.165800000000    -0.450589   
O9       O      0.481200000000     0.234880000000     0.180790000000    -0.450627   
O10      O      0.478660000000     0.232960000000     0.088960000000    -0.449602   
O11      O      0.479600000000     0.187920000000     0.135640000000    -0.452068   
O12      O      0.480030000000     0.278850000000     0.134660000000    -0.454216   
O13      O      0.032790000000     0.278440000000     0.135320000000    -0.451059   
O14      O      0.032250000000     0.187360000000     0.132280000000    -0.452956   
O15      O      0.031380000000     0.234320000000     0.087630000000    -0.450213   
O16      O      0.033900000000     0.230760000000     0.179470000000    -0.45027    
O17      O      0.228470000000     0.040190000000     0.130530000000    -0.45242    
O18      O      0.231300000000     0.449350000000     0.125050000000    -0.453503   
O19      O      0.231140000000     0.991390000000     0.173600000000    -0.448773   
O20      O      0.228900000000     0.497040000000     0.081870000000    -0.449971   
O21      O      0.281630000000     0.996130000000     0.080680000000    -0.451418   
O22      O      0.283660000000     0.497360000000     0.172350000000    -0.451371   
O23      O      0.284000000000     0.450740000000     0.126650000000    -0.448271   
O24      O      0.281040000000     0.041990000000     0.126460000000    -0.454033   
O25      O      0.226260000000     0.201910000000     0.125740000000    -0.448671   
O26      O      0.229470000000     0.292550000000     0.135830000000    -0.452434   
O27      O      0.228100000000     0.252450000000     0.085280000000    -0.452488   
O28      O      0.227370000000     0.243350000000     0.176400000000    -0.452458   
O29      O      0.279900000000     0.237400000000     0.176530000000    -0.446732   
O30      O      0.280850000000     0.252880000000     0.085720000000    -0.448175   
O31      O      0.282110000000     0.290340000000     0.138690000000    -0.448689   
O32      O      0.278940000000     0.200560000000     0.123420000000    -0.452002   
O33      O      0.026090000000     0.470380000000     0.870530000000    -0.448816   
O34      O      0.026290000000     0.061520000000     0.875330000000    -0.445578   
O35      O      0.026690000000     0.513630000000     0.918510000000    -0.454711   
O36      O      0.025980000000     0.017350000000     0.827060000000    -0.45083    
O37      O      0.473290000000     0.521540000000     0.827490000000    -0.448582   
O38      O      0.473970000000     0.011760000000     0.918920000000    -0.450992   
O39      O      0.473600000000     0.061520000000     0.878080000000    -0.451489   
O40      O      0.473360000000     0.470930000000     0.868710000000    -0.450015   
O41      O      0.473210000000     0.313280000000     0.889660000000    -0.450122   
O42      O      0.472400000000     0.222600000000     0.879300000000    -0.448088   
O43      O      0.474040000000     0.262950000000     0.930330000000    -0.448668   
O44      O      0.471350000000     0.273690000000     0.839020000000    -0.448235   
O45      O      0.024000000000     0.269200000000     0.837240000000    -0.44733    
O46      O      0.026740000000     0.264480000000     0.929000000000    -0.449647   
O47      O      0.025150000000     0.221980000000     0.880050000000    -0.449841   
O48      O      0.025830000000     0.312850000000     0.885840000000    -0.447062   
O49      O      0.224030000000     0.511760000000     0.829830000000    -0.45067    
O50      O      0.226370000000     0.014740000000     0.921470000000    -0.451638   
O51      O      0.223940000000     0.059270000000     0.874740000000    -0.446778   
O52      O      0.226720000000     0.467990000000     0.876740000000    -0.450309   
O53      O      0.279280000000     0.469590000000     0.872520000000    -0.448723   
O54      O      0.276660000000     0.060560000000     0.876010000000    -0.452294   
O55      O      0.279100000000     0.513770000000     0.920150000000    -0.449479   
O56      O      0.276550000000     0.017530000000     0.828270000000    -0.44854    
O57      O      0.279980000000     0.268740000000     0.833360000000    -0.452694   
O58      O      0.280250000000     0.257660000000     0.924310000000    -0.451823   
O59      O      0.278290000000     0.218640000000     0.872780000000    -0.451789   
O60      O      0.281720000000     0.309060000000     0.884740000000    -0.448347   
O61      O      0.229070000000     0.310460000000     0.887680000000    -0.451643   
O62      O      0.225620000000     0.220960000000     0.870620000000    -0.448766   
O63      O      0.227500000000     0.257340000000     0.924380000000    -0.449274   
O64      O      0.227450000000     0.274640000000     0.834050000000    -0.448568   
O65      O      0.462370000000     0.478810000000     0.363390000000    -0.447541   
O66      O      0.052330000000     0.481970000000     0.376710000000    -0.451437   
O67      O      0.500870000000     0.480520000000     0.415790000000    -0.448588   
O68      O      0.014780000000     0.480180000000     0.324920000000    -0.448257   
O69      O      0.508760000000     0.032850000000     0.323970000000    -0.447352   
O70      O      0.001560000000     0.033400000000     0.415710000000    -0.44218    
O71      O      0.050880000000     0.034760000000     0.373450000000    -0.448084   
O72      O      0.460450000000     0.031630000000     0.365650000000    -0.451068   
O73      O      0.495830000000     0.255120000000     0.339560000000    -0.452535   
O74      O      0.987400000000     0.259790000000     0.430640000000    -0.452379   
O75      O      0.037520000000     0.257870000000     0.389870000000    -0.446764   
O76      O      0.447070000000     0.256820000000     0.380180000000    -0.451953   
O77      O      0.447950000000     0.203920000000     0.380740000000    -0.449491   
O78      O      0.037720000000     0.205200000000     0.394790000000    -0.448707   
O79      O      0.486000000000     0.206970000000     0.433270000000    -0.44829    
O80      O      0.000160000000     0.202340000000     0.342410000000    -0.442065   
O81      O      0.261570000000     0.480900000000     0.422630000000    -0.453087   
O82      O      0.248470000000     0.482090000000     0.331860000000    -0.45042    
O83      O      0.300580000000     0.479730000000     0.371230000000    -0.448357   
O84      O      0.210590000000     0.483190000000     0.383890000000    -0.452531   
O85      O      0.212210000000     0.036030000000     0.381600000000    -0.448197   
O86      O      0.302720000000     0.032520000000     0.374120000000    -0.45148    
O87      O      0.254570000000     0.034750000000     0.331870000000    -0.450608   
O88      O      0.261240000000     0.033810000000     0.423280000000    -0.452219   
O89      O      0.287780000000     0.203800000000     0.384460000000    -0.451176   
O90      O      0.196850000000     0.203530000000     0.382300000000    -0.447874   
O91      O      0.244030000000     0.201170000000     0.337370000000    -0.447976   
O92      O      0.241690000000     0.206050000000     0.429180000000    -0.449429   
O93      O      0.243400000000     0.258850000000     0.426280000000    -0.451803   
O94      O      0.239900000000     0.253970000000     0.334750000000    -0.451155   
O95      O      0.196620000000     0.256430000000     0.381650000000    -0.452177   
O96      O      0.287440000000     0.256470000000     0.379440000000    -0.450491   
O97      O      0.001050000000     0.479600000000     0.577710000000    -0.446576   
O98      O      0.493110000000     0.478630000000     0.669190000000    -0.451567   
O99      O      0.451410000000     0.477450000000     0.619520000000    -0.450689   
O100     O      0.041680000000     0.480710000000     0.628230000000    -0.451107   
O101     O      0.039560000000     0.033490000000     0.631320000000    -0.444055   
O102     O      0.449830000000     0.030280000000     0.617070000000    -0.450479   
O103     O      0.986940000000     0.031290000000     0.669200000000    -0.446737   
O104     O      0.501600000000     0.032480000000     0.578350000000    -0.446112   
O105     O      0.026190000000     0.272730000000     0.643550000000    -0.446975   
O106     O      0.436370000000     0.271440000000     0.629680000000    -0.451122   
O107     O      0.973990000000     0.274730000000     0.682060000000    -0.447334   
O108     O      0.488040000000     0.269290000000     0.591260000000    -0.448916   
O109     O      0.986680000000     0.216490000000     0.594290000000    -0.451405   
O110     O      0.478120000000     0.221990000000     0.685420000000    -0.451509   
O111     O      0.436520000000     0.218800000000     0.634950000000    -0.448628   
O112     O      0.026990000000     0.219840000000     0.644690000000    -0.44884    
O113     O      0.254530000000     0.029830000000     0.668820000000    -0.448015   
O114     O      0.239860000000     0.031570000000     0.578220000000    -0.45107    
O115     O      0.201770000000     0.032410000000     0.630210000000    -0.447871   
O116     O      0.291450000000     0.029070000000     0.615970000000    -0.451873   
O117     O      0.289900000000     0.476220000000     0.617890000000    -0.450495   
O118     O      0.199640000000     0.479630000000     0.627160000000    -0.453908   
O119     O      0.240130000000     0.478660000000     0.577310000000    -0.453885   
O120     O      0.248550000000     0.477160000000     0.668560000000    -0.451813   
O121     O      0.228280000000     0.275610000000     0.678480000000    -0.450387   
O122     O      0.231730000000     0.269160000000     0.586990000000    -0.451236   
O123     O      0.185110000000     0.272060000000     0.631170000000    -0.451443   
O124     O      0.276030000000     0.272560000000     0.634370000000    -0.448446   
O125     O      0.276370000000     0.219680000000     0.635740000000    -0.45175    
O126     O      0.185510000000     0.219510000000     0.637260000000    -0.449921   
O127     O      0.229940000000     0.216420000000     0.590640000000    -0.450794   
O128     O      0.232700000000     0.222900000000     0.682190000000    -0.450558   
O129     O      0.478900000000     0.488060000000     0.166010000000    -0.451288   
O130     O      0.477900000000     0.980580000000     0.074640000000    -0.45268    
O131     O      0.478460000000     0.938400000000     0.123430000000    -0.450878   
O132     O      0.478630000000     0.529320000000     0.116820000000    -0.452587   
O133     O      0.031350000000     0.529000000000     0.118790000000    -0.453312   
O134     O      0.031120000000     0.938110000000     0.120340000000    -0.45631    
O135     O      0.030620000000     0.482580000000     0.073910000000    -0.452749   
O136     O      0.031580000000     0.983650000000     0.165800000000    -0.450134   
O137     O      0.481200000000     0.734880000000     0.180790000000    -0.450623   
O138     O      0.478660000000     0.732960000000     0.088960000000    -0.449595   
O139     O      0.479600000000     0.687920000000     0.135640000000    -0.452043   
O140     O      0.480030000000     0.778850000000     0.134660000000    -0.454191   
O141     O      0.032790000000     0.778440000000     0.135320000000    -0.451033   
O142     O      0.032250000000     0.687360000000     0.132280000000    -0.452932   
O143     O      0.031380000000     0.734320000000     0.087630000000    -0.450206   
O144     O      0.033900000000     0.730760000000     0.179470000000    -0.450266   
O145     O      0.228470000000     0.540190000000     0.130530000000    -0.449218   
O146     O      0.231300000000     0.949350000000     0.125050000000    -0.454167   
O147     O      0.231140000000     0.491390000000     0.173600000000    -0.449244   
O148     O      0.228900000000     0.997040000000     0.081870000000    -0.449719   
O149     O      0.281630000000     0.496130000000     0.080680000000    -0.451616   
O150     O      0.283660000000     0.997360000000     0.172350000000    -0.450541   
O151     O      0.284000000000     0.950740000000     0.126650000000    -0.448898   
O152     O      0.281040000000     0.541990000000     0.126460000000    -0.450833   
O153     O      0.226260000000     0.701910000000     0.125740000000    -0.44854    
O154     O      0.229470000000     0.792550000000     0.135830000000    -0.452513   
O155     O      0.228100000000     0.752450000000     0.085280000000    -0.452481   
O156     O      0.227370000000     0.743350000000     0.176400000000    -0.452457   
O157     O      0.279900000000     0.737400000000     0.176530000000    -0.44673    
O158     O      0.280850000000     0.752880000000     0.085720000000    -0.448169   
O159     O      0.282110000000     0.790340000000     0.138690000000    -0.448778   
O160     O      0.278940000000     0.700560000000     0.123420000000    -0.451874   
O161     O      0.026090000000     0.970380000000     0.870530000000    -0.445581   
O162     O      0.026290000000     0.561520000000     0.875330000000    -0.446229   
O163     O      0.026690000000     0.013630000000     0.918510000000    -0.454858   
O164     O      0.025980000000     0.517350000000     0.827060000000    -0.450435   
O165     O      0.473290000000     0.021540000000     0.827490000000    -0.448632   
O166     O      0.473970000000     0.511760000000     0.918920000000    -0.450776   
O167     O      0.473600000000     0.561520000000     0.878080000000    -0.452156   
O168     O      0.473360000000     0.970930000000     0.868710000000    -0.446689   
O169     O      0.473210000000     0.813280000000     0.889660000000    -0.450091   
O170     O      0.472400000000     0.722600000000     0.879300000000    -0.448095   
O171     O      0.474040000000     0.762950000000     0.930330000000    -0.44866    
O172     O      0.471350000000     0.773690000000     0.839020000000    -0.448227   
O173     O      0.024000000000     0.769200000000     0.837240000000    -0.447324   
O174     O      0.026740000000     0.764480000000     0.929000000000    -0.449638   
O175     O      0.025150000000     0.721980000000     0.880050000000    -0.449844   
O176     O      0.025830000000     0.812850000000     0.885840000000    -0.44704    
O177     O      0.224030000000     0.011760000000     0.829830000000    -0.451429   
O178     O      0.226370000000     0.514740000000     0.921470000000    -0.451466   
O179     O      0.223940000000     0.559270000000     0.874740000000    -0.447411   
O180     O      0.226720000000     0.967990000000     0.876740000000    -0.447075   
O181     O      0.279280000000     0.969590000000     0.872520000000    -0.445445   
O182     O      0.276660000000     0.560560000000     0.876010000000    -0.452978   
O183     O      0.279100000000     0.013780000000     0.920150000000    -0.449709   
O184     O      0.276550000000     0.517530000000     0.828270000000    -0.448266   
O185     O      0.279980000000     0.768740000000     0.833360000000    -0.452682   
O186     O      0.280250000000     0.757660000000     0.924310000000    -0.451816   
O187     O      0.278290000000     0.718640000000     0.872780000000    -0.451795   
O188     O      0.281720000000     0.809060000000     0.884740000000    -0.448317   
O189     O      0.229070000000     0.810460000000     0.887680000000    -0.451617   
O190     O      0.225620000000     0.720960000000     0.870620000000    -0.448772   
O191     O      0.227500000000     0.757340000000     0.924380000000    -0.449267   
O192     O      0.227450000000     0.774640000000     0.834050000000    -0.448561   
O193     O      0.462370000000     0.978810000000     0.363390000000    -0.443962   
O194     O      0.052330000000     0.981970000000     0.376710000000    -0.447866   
O195     O      0.500870000000     0.980520000000     0.415790000000    -0.444997   
O196     O      0.014780000000     0.980180000000     0.324920000000    -0.444737   
O197     O      0.508760000000     0.532840000000     0.323970000000    -0.448777   
O198     O      0.001560000000     0.533400000000     0.415710000000    -0.443466   
O199     O      0.050880000000     0.534760000000     0.373450000000    -0.449395   
O200     O      0.460450000000     0.531630000000     0.365650000000    -0.452398   
O201     O      0.495830000000     0.755120000000     0.339560000000    -0.452518   
O202     O      0.987400000000     0.759790000000     0.430640000000    -0.452356   
O203     O      0.037520000000     0.757870000000     0.389870000000    -0.446747   
O204     O      0.447070000000     0.756820000000     0.380180000000    -0.451931   
O205     O      0.447950000000     0.703920000000     0.380740000000    -0.449457   
O206     O      0.037720000000     0.705200000000     0.394790000000    -0.44868    
O207     O      0.486000000000     0.706970000000     0.433270000000    -0.448266   
O208     O      0.000160000000     0.702340000000     0.342410000000    -0.44203    
O209     O      0.261570000000     0.980900000000     0.422630000000    -0.449507   
O210     O      0.248470000000     0.982090000000     0.331860000000    -0.446946   
O211     O      0.300580000000     0.979730000000     0.371230000000    -0.444777   
O212     O      0.210590000000     0.983190000000     0.383890000000    -0.44896    
O213     O      0.212210000000     0.536030000000     0.381600000000    -0.449507   
O214     O      0.302720000000     0.532520000000     0.374120000000    -0.452804   
O215     O      0.254570000000     0.534750000000     0.331870000000    -0.451861   
O216     O      0.261240000000     0.533810000000     0.423280000000    -0.453563   
O217     O      0.287780000000     0.703800000000     0.384460000000    -0.451189   
O218     O      0.196850000000     0.703530000000     0.382300000000    -0.447882   
O219     O      0.244030000000     0.701180000000     0.337370000000    -0.448151   
O220     O      0.241690000000     0.706050000000     0.429180000000    -0.449446   
O221     O      0.243400000000     0.758850000000     0.426280000000    -0.451813   
O222     O      0.239900000000     0.753970000000     0.334750000000    -0.451225   
O223     O      0.196620000000     0.756430000000     0.381650000000    -0.452184   
O224     O      0.287440000000     0.756470000000     0.379440000000    -0.450499   
O225     O      0.001050000000     0.979600000000     0.577710000000    -0.443001   
O226     O      0.493110000000     0.978630000000     0.669190000000    -0.447994   
O227     O      0.451410000000     0.977450000000     0.619520000000    -0.446987   
O228     O      0.041680000000     0.980710000000     0.628230000000    -0.447531   
O229     O      0.039560000000     0.533490000000     0.631320000000    -0.445362   
O230     O      0.449830000000     0.530270000000     0.617070000000    -0.451995   
O231     O      0.986940000000     0.531290000000     0.669200000000    -0.448061   
O232     O      0.501600000000     0.532480000000     0.578350000000    -0.447412   
O233     O      0.026190000000     0.772730000000     0.643550000000    -0.446975   
O234     O      0.436370000000     0.771440000000     0.629680000000    -0.451112   
O235     O      0.973990000000     0.774730000000     0.682060000000    -0.447315   
O236     O      0.488040000000     0.769290000000     0.591260000000    -0.448918   
O237     O      0.986680000000     0.716490000000     0.594290000000    -0.451413   
O238     O      0.478120000000     0.721990000000     0.685420000000    -0.451516   
O239     O      0.436520000000     0.718800000000     0.634950000000    -0.448636   
O240     O      0.026990000000     0.719840000000     0.644690000000    -0.448847   
O241     O      0.254530000000     0.529830000000     0.668820000000    -0.449356   
O242     O      0.239860000000     0.531570000000     0.578220000000    -0.45242    
O243     O      0.201770000000     0.532410000000     0.630210000000    -0.449178   
O244     O      0.291450000000     0.529070000000     0.615970000000    -0.453231   
O245     O      0.289900000000     0.976220000000     0.617890000000    -0.446861   
O246     O      0.199640000000     0.979630000000     0.627160000000    -0.450328   
O247     O      0.240130000000     0.978660000000     0.577310000000    -0.450295   
O248     O      0.248550000000     0.977160000000     0.668560000000    -0.448148   
O249     O      0.228280000000     0.775610000000     0.678480000000    -0.450373   
O250     O      0.231730000000     0.769160000000     0.586990000000    -0.451237   
O251     O      0.185110000000     0.772060000000     0.631170000000    -0.45144    
O252     O      0.276030000000     0.772560000000     0.634370000000    -0.448439   
O253     O      0.276370000000     0.719680000000     0.635740000000    -0.45176    
O254     O      0.185510000000     0.719510000000     0.637260000000    -0.449926   
O255     O      0.229940000000     0.716420000000     0.590640000000    -0.450802   
O256     O      0.232700000000     0.722900000000     0.682190000000    -0.450564   
O257     O      0.978910000000     0.988060000000     0.166010000000    -0.453574   
O258     O      0.977900000000     0.480580000000     0.074640000000    -0.455794   
O259     O      0.978450000000     0.438400000000     0.123430000000    -0.452966   
O260     O      0.978630000000     0.029320000000     0.116820000000    -0.458638   
O261     O      0.531350000000     0.029000000000     0.118790000000    -0.455501   
O262     O      0.531120000000     0.438110000000     0.120340000000    -0.454633   
O263     O      0.530620000000     0.982580000000     0.073910000000    -0.451588   
O264     O      0.531580000000     0.483650000000     0.165800000000    -0.449461   
O265     O      0.981200000000     0.234880000000     0.180790000000    -0.453497   
O266     O      0.978660000000     0.232960000000     0.088960000000    -0.452474   
O267     O      0.979600000000     0.187920000000     0.135640000000    -0.454988   
O268     O      0.980030000000     0.278850000000     0.134660000000    -0.457095   
O269     O      0.532790000000     0.278440000000     0.135320000000    -0.449996   
O270     O      0.532250000000     0.187360000000     0.132280000000    -0.451867   
O271     O      0.531380000000     0.234320000000     0.087630000000    -0.449158   
O272     O      0.533900000000     0.230760000000     0.179470000000    -0.449218   
O273     O      0.728470000000     0.040190000000     0.130530000000    -0.452514   
O274     O      0.731300000000     0.449350000000     0.125050000000    -0.453502   
O275     O      0.731140000000     0.991390000000     0.173600000000    -0.448768   
O276     O      0.728900000000     0.497040000000     0.081870000000    -0.449967   
O277     O      0.781630000000     0.996130000000     0.080680000000    -0.451412   
O278     O      0.783660000000     0.497360000000     0.172350000000    -0.451378   
O279     O      0.784000000000     0.450740000000     0.126650000000    -0.448269   
O280     O      0.781040000000     0.041990000000     0.126460000000    -0.453929   
O281     O      0.726260000000     0.201910000000     0.125740000000    -0.448663   
O282     O      0.729470000000     0.292550000000     0.135830000000    -0.45243    
O283     O      0.728100000000     0.252450000000     0.085280000000    -0.452481   
O284     O      0.727370000000     0.243350000000     0.176400000000    -0.452455   
O285     O      0.779900000000     0.237400000000     0.176530000000    -0.446741   
O286     O      0.780850000000     0.252880000000     0.085720000000    -0.448175   
O287     O      0.782110000000     0.290340000000     0.138690000000    -0.448694   
O288     O      0.778940000000     0.200560000000     0.123420000000    -0.452003   
O289     O      0.526090000000     0.470380000000     0.870530000000    -0.451406   
O290     O      0.526290000000     0.061520000000     0.875330000000    -0.448344   
O291     O      0.526690000000     0.513630000000     0.918510000000    -0.45395    
O292     O      0.525980000000     0.017350000000     0.827060000000    -0.453623   
O293     O      0.973290000000     0.521540000000     0.827490000000    -0.447637   
O294     O      0.973970000000     0.011760000000     0.918920000000    -0.453544   
O295     O      0.973600000000     0.061520000000     0.878080000000    -0.450573   
O296     O      0.973360000000     0.470930000000     0.868710000000    -0.449013   
O297     O      0.973220000000     0.313280000000     0.889660000000    -0.44875    
O298     O      0.972400000000     0.222600000000     0.879300000000    -0.447138   
O299     O      0.974030000000     0.262950000000     0.930330000000    -0.451043   
O300     O      0.971350000000     0.273690000000     0.839020000000    -0.447268   
O301     O      0.524000000000     0.269200000000     0.837240000000    -0.450117   
O302     O      0.526740000000     0.264480000000     0.929000000000    -0.449022   
O303     O      0.525150000000     0.221980000000     0.880050000000    -0.452611   
O304     O      0.525830000000     0.312850000000     0.885840000000    -0.450412   
O305     O      0.724030000000     0.511760000000     0.829830000000    -0.450685   
O306     O      0.726370000000     0.014740000000     0.921470000000    -0.451639   
O307     O      0.723950000000     0.059270000000     0.874740000000    -0.446953   
O308     O      0.726720000000     0.467990000000     0.876740000000    -0.450318   
O309     O      0.779280000000     0.469590000000     0.872520000000    -0.448723   
O310     O      0.776660000000     0.060560000000     0.876010000000    -0.452355   
O311     O      0.779100000000     0.513770000000     0.920150000000    -0.449477   
O312     O      0.776550000000     0.017530000000     0.828270000000    -0.448535   
O313     O      0.779980000000     0.268740000000     0.833360000000    -0.452692   
O314     O      0.780250000000     0.257660000000     0.924310000000    -0.451881   
O315     O      0.778290000000     0.218640000000     0.872780000000    -0.451883   
O316     O      0.781730000000     0.309060000000     0.884740000000    -0.448179   
O317     O      0.729070000000     0.310460000000     0.887680000000    -0.451579   
O318     O      0.725620000000     0.220960000000     0.870620000000    -0.44867    
O319     O      0.727510000000     0.257340000000     0.924380000000    -0.449433   
O320     O      0.727450000000     0.274640000000     0.834050000000    -0.448579   
O321     O      0.962370000000     0.478810000000     0.363390000000    -0.449983   
O322     O      0.552330000000     0.481970000000     0.376710000000    -0.45112    
O323     O      0.000870000000     0.480520000000     0.415790000000    -0.444145   
O324     O      0.514780000000     0.480180000000     0.324920000000    -0.448639   
O325     O      0.008760000000     0.032850000000     0.323970000000    -0.44661    
O326     O      0.501560000000     0.033400000000     0.415710000000    -0.446566   
O327     O      0.550880000000     0.034760000000     0.373450000000    -0.447739   
O328     O      0.960450000000     0.031630000000     0.365650000000    -0.453466   
O329     O      0.995840000000     0.255120000000     0.339560000000    -0.451982   
O330     O      0.487400000000     0.259790000000     0.430640000000    -0.452204   
O331     O      0.537520000000     0.257870000000     0.389870000000    -0.449459   
O332     O      0.947070000000     0.256820000000     0.380180000000    -0.451599   
O333     O      0.947950000000     0.203920000000     0.380740000000    -0.448823   
O334     O      0.537720000000     0.205200000000     0.394790000000    -0.451519   
O335     O      0.986000000000     0.206970000000     0.433270000000    -0.447929   
O336     O      0.500160000000     0.202340000000     0.342410000000    -0.44757    
O337     O      0.761570000000     0.480900000000     0.422630000000    -0.453096   
O338     O      0.748470000000     0.482090000000     0.331860000000    -0.450422   
O339     O      0.800580000000     0.479730000000     0.371230000000    -0.44837    
O340     O      0.710590000000     0.483190000000     0.383890000000    -0.452538   
O341     O      0.712210000000     0.036030000000     0.381600000000    -0.448196   
O342     O      0.802720000000     0.032520000000     0.374120000000    -0.451489   
O343     O      0.754570000000     0.034750000000     0.331870000000    -0.450606   
O344     O      0.761240000000     0.033810000000     0.423280000000    -0.452224   
O345     O      0.787780000000     0.203800000000     0.384460000000    -0.451215   
O346     O      0.696850000000     0.203530000000     0.382300000000    -0.447962   
O347     O      0.744030000000     0.201170000000     0.337370000000    -0.447987   
O348     O      0.741690000000     0.206050000000     0.429180000000    -0.449438   
O349     O      0.743400000000     0.258850000000     0.426280000000    -0.451789   
O350     O      0.739900000000     0.253970000000     0.334750000000    -0.45113    
O351     O      0.696620000000     0.256430000000     0.381650000000    -0.452241   
O352     O      0.787450000000     0.256470000000     0.379440000000    -0.450438   
O353     O      0.501050000000     0.479600000000     0.577710000000    -0.449486   
O354     O      0.993110000000     0.478630000000     0.669190000000    -0.451648   
O355     O      0.951410000000     0.477450000000     0.619520000000    -0.450127   
O356     O      0.541680000000     0.480710000000     0.628230000000    -0.453823   
O357     O      0.539560000000     0.033490000000     0.631320000000    -0.44681    
O358     O      0.949830000000     0.030280000000     0.617070000000    -0.449937   
O359     O      0.486940000000     0.031290000000     0.669200000000    -0.447022   
O360     O      0.001600000000     0.032480000000     0.578350000000    -0.443264   
O361     O      0.526190000000     0.272730000000     0.643550000000    -0.449677   
O362     O      0.936370000000     0.271440000000     0.629680000000    -0.450596   
O363     O      0.473980000000     0.274730000000     0.682060000000    -0.447276   
O364     O      0.988040000000     0.269290000000     0.591260000000    -0.449056   
O365     O      0.486680000000     0.216490000000     0.594290000000    -0.451336   
O366     O      0.978120000000     0.221990000000     0.685420000000    -0.451807   
O367     O      0.936520000000     0.218800000000     0.634950000000    -0.448085   
O368     O      0.526990000000     0.219840000000     0.644690000000    -0.451477   
O369     O      0.754530000000     0.029830000000     0.668820000000    -0.448013   
O370     O      0.739860000000     0.031570000000     0.578220000000    -0.451075   
O371     O      0.701770000000     0.032410000000     0.630210000000    -0.447883   
O372     O      0.791450000000     0.029070000000     0.615970000000    -0.45187    
O373     O      0.789900000000     0.476220000000     0.617890000000    -0.450493   
O374     O      0.699640000000     0.479630000000     0.627160000000    -0.453926   
O375     O      0.740130000000     0.478660000000     0.577310000000    -0.453895   
O376     O      0.748550000000     0.477160000000     0.668560000000    -0.451813   
O377     O      0.728280000000     0.275610000000     0.678480000000    -0.450389   
O378     O      0.731730000000     0.269160000000     0.586990000000    -0.451248   
O379     O      0.685110000000     0.272060000000     0.631170000000    -0.451479   
O380     O      0.776030000000     0.272560000000     0.634370000000    -0.448521   
O381     O      0.776370000000     0.219680000000     0.635740000000    -0.451815   
O382     O      0.685510000000     0.219510000000     0.637260000000    -0.44996    
O383     O      0.729950000000     0.216420000000     0.590640000000    -0.450809   
O384     O      0.732700000000     0.222900000000     0.682190000000    -0.450563   
O385     O      0.978910000000     0.488060000000     0.166010000000    -0.454373   
O386     O      0.977900000000     0.980580000000     0.074640000000    -0.455625   
O387     O      0.978450000000     0.938400000000     0.123430000000    -0.453602   
O388     O      0.978630000000     0.529320000000     0.116820000000    -0.455423   
O389     O      0.531350000000     0.529000000000     0.118790000000    -0.452267   
O390     O      0.531120000000     0.938110000000     0.120340000000    -0.455303   
O391     O      0.530620000000     0.482580000000     0.073910000000    -0.451795   
O392     O      0.531580000000     0.983650000000     0.165800000000    -0.449009   
O393     O      0.981200000000     0.734880000000     0.180790000000    -0.453493   
O394     O      0.978660000000     0.732960000000     0.088960000000    -0.452466   
O395     O      0.979600000000     0.687920000000     0.135640000000    -0.454964   
O396     O      0.980030000000     0.778850000000     0.134660000000    -0.457068   
O397     O      0.532790000000     0.778440000000     0.135320000000    -0.449971   
O398     O      0.532250000000     0.687360000000     0.132280000000    -0.451842   
O399     O      0.531380000000     0.734320000000     0.087630000000    -0.449151   
O400     O      0.533900000000     0.730760000000     0.179470000000    -0.449215   
O401     O      0.728470000000     0.540190000000     0.130530000000    -0.449309   
O402     O      0.731300000000     0.949350000000     0.125050000000    -0.454168   
O403     O      0.731140000000     0.491390000000     0.173600000000    -0.449241   
O404     O      0.728900000000     0.997040000000     0.081870000000    -0.449714   
O405     O      0.781630000000     0.496130000000     0.080680000000    -0.451611   
O406     O      0.783660000000     0.997360000000     0.172350000000    -0.450547   
O407     O      0.784000000000     0.950740000000     0.126650000000    -0.448896   
O408     O      0.781040000000     0.541990000000     0.126460000000    -0.450729   
O409     O      0.726260000000     0.701910000000     0.125740000000    -0.448532   
O410     O      0.729470000000     0.792550000000     0.135830000000    -0.452509   
O411     O      0.728100000000     0.752450000000     0.085280000000    -0.452474   
O412     O      0.727370000000     0.743350000000     0.176400000000    -0.452454   
O413     O      0.779900000000     0.737400000000     0.176530000000    -0.446739   
O414     O      0.780850000000     0.752880000000     0.085720000000    -0.448169   
O415     O      0.782110000000     0.790340000000     0.138690000000    -0.448784   
O416     O      0.778940000000     0.700560000000     0.123420000000    -0.451875   
O417     O      0.526090000000     0.970380000000     0.870530000000    -0.448152   
O418     O      0.526290000000     0.561520000000     0.875330000000    -0.449003   
O419     O      0.526690000000     0.013630000000     0.918510000000    -0.454099   
O420     O      0.525980000000     0.517350000000     0.827060000000    -0.453236   
O421     O      0.973290000000     0.021540000000     0.827490000000    -0.44769    
O422     O      0.973970000000     0.511760000000     0.918920000000    -0.453336   
O423     O      0.973600000000     0.561520000000     0.878080000000    -0.451236   
O424     O      0.973360000000     0.970930000000     0.868710000000    -0.445698   
O425     O      0.973220000000     0.813280000000     0.889660000000    -0.448721   
O426     O      0.972400000000     0.722600000000     0.879300000000    -0.447145   
O427     O      0.974030000000     0.762950000000     0.930330000000    -0.451034   
O428     O      0.971350000000     0.773690000000     0.839020000000    -0.447261   
O429     O      0.524000000000     0.769200000000     0.837240000000    -0.45011    
O430     O      0.526740000000     0.764480000000     0.929000000000    -0.449014   
O431     O      0.525150000000     0.721980000000     0.880050000000    -0.452616   
O432     O      0.525830000000     0.812850000000     0.885840000000    -0.450385   
O433     O      0.724030000000     0.011760000000     0.829830000000    -0.451445   
O434     O      0.726370000000     0.514740000000     0.921470000000    -0.451467   
O435     O      0.723950000000     0.559270000000     0.874740000000    -0.447586   
O436     O      0.726720000000     0.967990000000     0.876740000000    -0.447082   
O437     O      0.779280000000     0.969590000000     0.872520000000    -0.445446   
O438     O      0.776660000000     0.560560000000     0.876010000000    -0.453038   
O439     O      0.779100000000     0.013780000000     0.920150000000    -0.449707   
O440     O      0.776550000000     0.517530000000     0.828270000000    -0.448261   
O441     O      0.779980000000     0.768740000000     0.833360000000    -0.45268    
O442     O      0.780250000000     0.757660000000     0.924310000000    -0.451875   
O443     O      0.778290000000     0.718640000000     0.872780000000    -0.451889   
O444     O      0.781730000000     0.809060000000     0.884740000000    -0.448149   
O445     O      0.729070000000     0.810460000000     0.887680000000    -0.451553   
O446     O      0.725620000000     0.720960000000     0.870620000000    -0.448676   
O447     O      0.727510000000     0.757340000000     0.924380000000    -0.449426   
O448     O      0.727450000000     0.774640000000     0.834050000000    -0.448572   
O449     O      0.962370000000     0.978810000000     0.363390000000    -0.446404   
O450     O      0.552330000000     0.981970000000     0.376710000000    -0.44754    
O451     O      0.000870000000     0.980520000000     0.415790000000    -0.440581   
O452     O      0.514780000000     0.980180000000     0.324920000000    -0.445105   
O453     O      0.008760000000     0.532840000000     0.323970000000    -0.44803    
O454     O      0.501560000000     0.533400000000     0.415710000000    -0.447869   
O455     O      0.550880000000     0.534760000000     0.373450000000    -0.449053   
O456     O      0.960450000000     0.531630000000     0.365650000000    -0.454798   
O457     O      0.995840000000     0.755120000000     0.339560000000    -0.451965   
O458     O      0.487400000000     0.759790000000     0.430640000000    -0.452182   
O459     O      0.537520000000     0.757870000000     0.389870000000    -0.44944    
O460     O      0.947070000000     0.756820000000     0.380180000000    -0.451577   
O461     O      0.947950000000     0.703920000000     0.380740000000    -0.448788   
O462     O      0.537720000000     0.705200000000     0.394790000000    -0.451492   
O463     O      0.986000000000     0.706970000000     0.433270000000    -0.447906   
O464     O      0.500160000000     0.702340000000     0.342410000000    -0.447534   
O465     O      0.761570000000     0.980900000000     0.422630000000    -0.449516   
O466     O      0.748470000000     0.982090000000     0.331860000000    -0.446947   
O467     O      0.800580000000     0.979730000000     0.371230000000    -0.444792   
O468     O      0.710590000000     0.983190000000     0.383890000000    -0.448963   
O469     O      0.712210000000     0.536030000000     0.381600000000    -0.449506   
O470     O      0.802720000000     0.532520000000     0.374120000000    -0.452813   
O471     O      0.754570000000     0.534750000000     0.331870000000    -0.451859   
O472     O      0.761240000000     0.533810000000     0.423280000000    -0.453567   
O473     O      0.787780000000     0.703800000000     0.384460000000    -0.451228   
O474     O      0.696850000000     0.703530000000     0.382300000000    -0.44797    
O475     O      0.744030000000     0.701180000000     0.337370000000    -0.448162   
O476     O      0.741690000000     0.706050000000     0.429180000000    -0.449456   
O477     O      0.743400000000     0.758850000000     0.426280000000    -0.451799   
O478     O      0.739900000000     0.753970000000     0.334750000000    -0.4512     
O479     O      0.696620000000     0.756430000000     0.381650000000    -0.452248   
O480     O      0.787450000000     0.756470000000     0.379440000000    -0.450446   
O481     O      0.501050000000     0.979600000000     0.577710000000    -0.445886   
O482     O      0.993110000000     0.978630000000     0.669190000000    -0.448085   
O483     O      0.951410000000     0.977450000000     0.619520000000    -0.446435   
O484     O      0.541680000000     0.980710000000     0.628230000000    -0.450226   
O485     O      0.539560000000     0.533490000000     0.631320000000    -0.448129   
O486     O      0.949830000000     0.530270000000     0.617070000000    -0.451447   
O487     O      0.486940000000     0.531290000000     0.669200000000    -0.448351   
O488     O      0.001600000000     0.532480000000     0.578350000000    -0.444553   
O489     O      0.526190000000     0.772730000000     0.643550000000    -0.449673   
O490     O      0.936370000000     0.771440000000     0.629680000000    -0.450587   
O491     O      0.473980000000     0.774730000000     0.682060000000    -0.447257   
O492     O      0.988040000000     0.769290000000     0.591260000000    -0.449057   
O493     O      0.486680000000     0.716490000000     0.594290000000    -0.451343   
O494     O      0.978120000000     0.721990000000     0.685420000000    -0.451815   
O495     O      0.936520000000     0.718800000000     0.634950000000    -0.448093   
O496     O      0.526990000000     0.719840000000     0.644690000000    -0.451484   
O497     O      0.754530000000     0.529830000000     0.668820000000    -0.449354   
O498     O      0.739860000000     0.531570000000     0.578220000000    -0.452425   
O499     O      0.701770000000     0.532410000000     0.630210000000    -0.449191   
O500     O      0.791450000000     0.529070000000     0.615970000000    -0.453227   
O501     O      0.789900000000     0.976220000000     0.617890000000    -0.446861   
O502     O      0.699640000000     0.979630000000     0.627160000000    -0.450342   
O503     O      0.740130000000     0.978660000000     0.577310000000    -0.450303   
O504     O      0.748550000000     0.977160000000     0.668560000000    -0.448147   
O505     O      0.728280000000     0.775610000000     0.678480000000    -0.450375   
O506     O      0.731730000000     0.769160000000     0.586990000000    -0.451249   
O507     O      0.685110000000     0.772060000000     0.631170000000    -0.451476   
O508     O      0.776030000000     0.772560000000     0.634370000000    -0.448514   
O509     O      0.776370000000     0.719680000000     0.635740000000    -0.451826   
O510     O      0.685510000000     0.719510000000     0.637260000000    -0.449964   
O511     O      0.729950000000     0.716420000000     0.590640000000    -0.450817   
O512     O      0.732700000000     0.722900000000     0.682190000000    -0.450569   


