data_structure

_audit_creation_method RASPA-1.0
_audit_creation_date 2023-5-19
_audit_author_name 'Poobodin Mano'

_cell_length_a    42.3153
_cell_length_b    42.2408
_cell_length_c    42.0736
_cell_angle_alpha 90
_cell_angle_beta  90
_cell_angle_gamma 90
_cell_volume      75203.7

_symmetry_cell_setting          triclinic
_symmetry_space_group_name_Hall 'P 1'
_symmetry_space_group_name_H-M  'P 1'
_symmetry_Int_Tables_number     1

_symmetry_equiv_pos_as_xyz 'x,y,z'

loop_
_atom_site_label
_atom_site_type_symbol
_atom_site_fract_x
_atom_site_fract_y
_atom_site_fract_z
_atom_site_charge
Br1      Br     0.332790000000     0.193760000000     0.040840000000    -0.226591   
Br2      Br     0.078340000000     0.279180000000     0.059480000000    -0.234345   
Br3      Br     0.300070000000     0.336410000000     0.038740000000    -0.231348   
Br4      Br     0.212430000000     0.083140000000     0.060030000000    -0.22514    
Br5      Br     0.209950000000     0.060700000000     0.409800000000    -0.231198   
Br6      Br     0.182500000000     0.017660000000     0.158510000000    -0.229198   
Br7      Br     0.433790000000     0.215820000000     0.408370000000    -0.23455    
Br8      Br     0.466920000000     0.179690000000     0.159960000000    -0.226644   
Br9      Br     0.083890000000     0.440580000000     0.300180000000    -0.234238   
Br10     Br     0.407590000000     0.443470000000     0.287070000000    -0.219793   
Br11     Br     0.437790000000     0.413300000000     0.199920000000    -0.218051   
Br12     Br     0.057520000000     0.085120000000     0.216460000000    -0.228748   
Br13     Br     0.332790000000     0.193760000000     0.540840000000    -0.227538   
Br14     Br     0.078340000000     0.279180000000     0.559480000000    -0.235318   
Br15     Br     0.300070000000     0.336410000000     0.538740000000    -0.232404   
Br16     Br     0.212430000000     0.083140000000     0.560030000000    -0.225588   
Br17     Br     0.209950000000     0.060700000000     0.909800000000    -0.231811   
Br18     Br     0.182500000000     0.017660000000     0.658510000000    -0.229341   
Br19     Br     0.433790000000     0.215820000000     0.908370000000    -0.234761   
Br20     Br     0.466920000000     0.179690000000     0.659960000000    -0.226823   
Br21     Br     0.083890000000     0.440580000000     0.800180000000    -0.234369   
Br22     Br     0.407590000000     0.443470000000     0.787070000000    -0.21988    
Br23     Br     0.437790000000     0.413300000000     0.699920000000    -0.218234   
Br24     Br     0.057520000000     0.085120000000     0.716460000000    -0.228867   
Br25     Br     0.332790000000     0.693760000000     0.040840000000    -0.226601   
Br26     Br     0.078340000000     0.779180000000     0.059480000000    -0.234352   
Br27     Br     0.300070000000     0.836410000000     0.038740000000    -0.231358   
Br28     Br     0.212430000000     0.583140000000     0.060030000000    -0.225239   
Br29     Br     0.209950000000     0.560700000000     0.409800000000    -0.231282   
Br30     Br     0.182500000000     0.517660000000     0.158510000000    -0.229658   
Br31     Br     0.433790000000     0.715820000000     0.408370000000    -0.234578   
Br32     Br     0.466920000000     0.679690000000     0.159960000000    -0.22667    
Br33     Br     0.083890000000     0.940580000000     0.300180000000    -0.234275   
Br34     Br     0.407590000000     0.943470000000     0.287070000000    -0.219844   
Br35     Br     0.437790000000     0.913300000000     0.199920000000    -0.218143   
Br36     Br     0.057520000000     0.585120000000     0.216460000000    -0.228824   
Br37     Br     0.332790000000     0.693760000000     0.540840000000    -0.227554   
Br38     Br     0.078340000000     0.779180000000     0.559480000000    -0.235329   
Br39     Br     0.300070000000     0.836410000000     0.538740000000    -0.232417   
Br40     Br     0.212430000000     0.583140000000     0.560030000000    -0.225694   
Br41     Br     0.209950000000     0.560700000000     0.909800000000    -0.231902   
Br42     Br     0.182500000000     0.517660000000     0.658510000000    -0.229819   
Br43     Br     0.433790000000     0.715820000000     0.908370000000    -0.23479    
Br44     Br     0.466920000000     0.679690000000     0.659960000000    -0.226851   
Br45     Br     0.083890000000     0.940580000000     0.800180000000    -0.234407   
Br46     Br     0.407590000000     0.943470000000     0.787070000000    -0.219932   
Br47     Br     0.437790000000     0.913300000000     0.699920000000    -0.21833    
Br48     Br     0.057520000000     0.585120000000     0.716460000000    -0.228946   
Br49     Br     0.832790000000     0.193760000000     0.040840000000    -0.226699   
Br50     Br     0.578340000000     0.279180000000     0.059480000000    -0.236273   
Br51     Br     0.800070000000     0.336410000000     0.038740000000    -0.231488   
Br52     Br     0.712430000000     0.083140000000     0.060030000000    -0.225479   
Br53     Br     0.709950000000     0.060700000000     0.409800000000    -0.231614   
Br54     Br     0.682500000000     0.017660000000     0.158510000000    -0.229578   
Br55     Br     0.933790000000     0.215820000000     0.408370000000    -0.23498    
Br56     Br     0.966920000000     0.179690000000     0.159960000000    -0.228085   
Br57     Br     0.583890000000     0.440580000000     0.300180000000    -0.235992   
Br58     Br     0.907590000000     0.443470000000     0.287070000000    -0.220466   
Br59     Br     0.937790000000     0.413300000000     0.199920000000    -0.218805   
Br60     Br     0.557520000000     0.085120000000     0.216460000000    -0.230098   
Br61     Br     0.832790000000     0.193760000000     0.540840000000    -0.227649   
Br62     Br     0.578340000000     0.279180000000     0.559480000000    -0.23726    
Br63     Br     0.800070000000     0.336410000000     0.538740000000    -0.232548   
Br64     Br     0.712430000000     0.083140000000     0.560030000000    -0.225931   
Br65     Br     0.709950000000     0.060700000000     0.909800000000    -0.232229   
Br66     Br     0.682500000000     0.017660000000     0.658510000000    -0.229723   
Br67     Br     0.933790000000     0.215820000000     0.908370000000    -0.23519    
Br68     Br     0.966920000000     0.179690000000     0.659960000000    -0.228267   
Br69     Br     0.583890000000     0.440580000000     0.800180000000    -0.236125   
Br70     Br     0.907590000000     0.443470000000     0.787070000000    -0.220552   
Br71     Br     0.937790000000     0.413300000000     0.699920000000    -0.21899    
Br72     Br     0.557520000000     0.085120000000     0.716460000000    -0.230221   
Br73     Br     0.832790000000     0.693760000000     0.040840000000    -0.226709   
Br74     Br     0.578340000000     0.779180000000     0.059480000000    -0.236278   
Br75     Br     0.800070000000     0.836410000000     0.038740000000    -0.231497   
Br76     Br     0.712430000000     0.583140000000     0.060030000000    -0.225578   
Br77     Br     0.709950000000     0.560700000000     0.409800000000    -0.231699   
Br78     Br     0.682500000000     0.517660000000     0.158510000000    -0.230036   
Br79     Br     0.933790000000     0.715820000000     0.408370000000    -0.235008   
Br80     Br     0.966920000000     0.679690000000     0.159960000000    -0.228113   
Br81     Br     0.583890000000     0.940580000000     0.300180000000    -0.236022   
Br82     Br     0.907590000000     0.943470000000     0.287070000000    -0.220514   
Br83     Br     0.937790000000     0.913300000000     0.199920000000    -0.218894   
Br84     Br     0.557520000000     0.585120000000     0.216460000000    -0.230175   
Br85     Br     0.832790000000     0.693760000000     0.540840000000    -0.227665   
Br86     Br     0.578340000000     0.779180000000     0.559480000000    -0.237269   
Br87     Br     0.800070000000     0.836410000000     0.538740000000    -0.232561   
Br88     Br     0.712430000000     0.583140000000     0.560030000000    -0.226036   
Br89     Br     0.709950000000     0.560700000000     0.909800000000    -0.232321   
Br90     Br     0.682500000000     0.517660000000     0.658510000000    -0.2302     
Br91     Br     0.933790000000     0.715820000000     0.908370000000    -0.23522    
Br92     Br     0.966920000000     0.679690000000     0.659960000000    -0.228297   
Br93     Br     0.583890000000     0.940580000000     0.800180000000    -0.236156   
Br94     Br     0.907590000000     0.943470000000     0.787070000000    -0.220602   
Br95     Br     0.937790000000     0.913300000000     0.699920000000    -0.219082   
Br96     Br     0.557520000000     0.585120000000     0.716460000000    -0.230301   
C1       C      0.436000000000     0.000350000000     0.247350000000     0.445568   
C2       C      0.055980000000     0.493020000000     0.254790000000     0.442992   
C3       C      0.500840000000     0.057650000000     0.257000000000     0.440135   
C4       C      0.491460000000     0.437800000000     0.245550000000     0.447163   
C5       C      0.498680000000     0.241300000000     0.185200000000     0.445867   
C6       C      0.491760000000     0.253250000000     0.305450000000     0.429378   
C7       C      0.995920000000     0.187280000000     0.250630000000     0.425956   
C8       C      0.994560000000     0.307490000000     0.239140000000     0.420375   
C9       C      0.306170000000     0.500390000000     0.245150000000     0.42869    
C10      C      0.186130000000     0.490460000000     0.248750000000     0.43249    
C11      C      0.249130000000     0.003960000000     0.305960000000     0.429902   
C12      C      0.243600000000     0.986640000000     0.186080000000     0.441921   
C13      C      0.247140000000     0.502130000000     0.435980000000     0.443064   
C14      C      0.249080000000     0.994210000000     0.056860000000     0.432305   
C15      C      0.247370000000     0.437630000000     0.492750000000     0.428473   
C16      C      0.248780000000     0.058040000000     0.500490000000     0.447096   
C17      C      0.990790000000     0.246000000000     0.056090000000     0.432798   
C18      C      0.495550000000     0.245160000000     0.435140000000     0.444458   
C19      C      0.053980000000     0.244650000000     0.998730000000     0.438326   
C20      C      0.433590000000     0.246300000000     0.993330000000     0.43515    
C21      C      0.184310000000     0.243080000000     0.006790000000     0.429347   
C22      C      0.304330000000     0.252310000000     0.005910000000     0.45059    
C23      C      0.249730000000     0.188340000000     0.507360000000     0.434511   
C24      C      0.240480000000     0.308390000000     0.505420000000     0.441695   
C25      C      0.383630000000     0.269820000000     0.473970000000    -0.0116418  
C26      C      0.383680000000     0.219300000000     0.505700000000    -0.0423386  
C27      C      0.352830000000     0.279720000000     0.490450000000    -0.00895682 
C28      C      0.355590000000     0.231090000000     0.025240000000     0.113666   
C29      C      0.136500000000     0.216990000000     0.485690000000    -0.0129983  
C30      C      0.133630000000     0.251300000000     0.034280000000    -0.0434686  
C31      C      0.103980000000     0.229060000000     0.475120000000    -0.00834517 
C32      C      0.103000000000     0.266380000000     0.022210000000     0.116374   
C33      C      0.223190000000     0.387890000000     0.473390000000    -0.0120318  
C34      C      0.274430000000     0.387380000000     0.003760000000    -0.0373355  
C35      C      0.213380000000     0.357120000000     0.490110000000    -0.00866427 
C36      C      0.262760000000     0.359580000000     0.023790000000     0.113399   
C37      C      0.276350000000     0.140510000000     0.986990000000    -0.0161932  
C38      C      0.241550000000     0.137890000000     0.035210000000    -0.042456   
C39      C      0.264440000000     0.107890000000     0.476520000000    -0.0099737  
C40      C      0.226470000000     0.107360000000     0.522970000000     0.116095   
C41      C      0.277090000000     0.490010000000     0.355100000000    -0.0105196  
C42      C      0.238770000000     0.035210000000     0.354530000000    -0.0412097  
C43      C      0.263430000000     0.478150000000     0.386330000000    -0.00843917 
C44      C      0.224090000000     0.023500000000     0.385920000000     0.11367    
C45      C      0.276420000000     0.482130000000     0.107580000000    -0.0122755  
C46      C      0.224280000000     0.011100000000     0.106560000000    -0.0474495  
C47      C      0.265160000000     0.463510000000     0.137000000000    -0.00761101 
C48      C      0.213530000000     0.992500000000     0.135530000000     0.119026   
C49      C      0.013940000000     0.274600000000     0.355250000000    -0.00805341 
C50      C      0.461800000000     0.246040000000     0.355130000000    -0.0424046  
C51      C      0.023140000000     0.257770000000     0.386050000000    -0.00355042 
C52      C      0.471930000000     0.226870000000     0.384380000000     0.11454    
C53      C      0.497370000000     0.274270000000     0.107000000000    -0.0111042  
C54      C      0.472520000000     0.219990000000     0.105340000000    -0.0436652  
C55      C      0.017510000000     0.263950000000     0.135360000000     0.00152054 
C56      C      0.990930000000     0.210750000000     0.135280000000     0.105013   
C57      C      0.135960000000     0.006200000000     0.224960000000    -0.0124131  
C58      C      0.137420000000     0.462910000000     0.266030000000    -0.0415746  
C59      C      0.104710000000     0.017700000000     0.238150000000    -0.0105723  
C60      C      0.106580000000     0.475870000000     0.280650000000     0.11514    
C61      C      0.355620000000     0.030530000000     0.236160000000    -0.0119353  
C62      C      0.354770000000     0.982170000000     0.271090000000    -0.0438598  
C63      C      0.387350000000     0.019510000000     0.222170000000    -0.008045   
C64      C      0.385900000000     0.471190000000     0.256760000000     0.114538   
C65      C      0.022860000000     0.357970000000     0.244800000000    -0.00597353 
C66      C      0.470150000000     0.356190000000     0.217100000000    -0.0426969  
C67      C      0.012490000000     0.387410000000     0.262630000000    -0.00622201 
C68      C      0.462240000000     0.389100000000     0.231000000000     0.112537   
C69      C      0.470390000000     0.136810000000     0.265340000000    -0.0117485  
C70      C      0.019210000000     0.138120000000     0.230930000000    -0.0416809  
C71      C      0.483160000000     0.107090000000     0.282020000000    -0.00767201 
C72      C      0.030780000000     0.107700000000     0.246660000000     0.116942   
C73      C      0.436000000000     0.000350000000     0.747350000000     0.445607   
C74      C      0.055980000000     0.493020000000     0.754790000000     0.443001   
C75      C      0.500840000000     0.057650000000     0.757000000000     0.439881   
C76      C      0.491460000000     0.437800000000     0.745550000000     0.447177   
C77      C      0.498680000000     0.241300000000     0.685200000000     0.44587    
C78      C      0.491760000000     0.253250000000     0.805450000000     0.429379   
C79      C      0.995920000000     0.187280000000     0.750630000000     0.42595    
C80      C      0.994560000000     0.307490000000     0.739140000000     0.420364   
C81      C      0.306170000000     0.500390000000     0.745150000000     0.42869    
C82      C      0.186130000000     0.490460000000     0.748750000000     0.432492   
C83      C      0.249130000000     0.003960000000     0.805960000000     0.42992    
C84      C      0.243600000000     0.986640000000     0.686080000000     0.441906   
C85      C      0.247140000000     0.502130000000     0.935980000000     0.442785   
C86      C      0.249080000000     0.994210000000     0.556860000000     0.432848   
C87      C      0.247370000000     0.437630000000     0.992750000000     0.428125   
C88      C      0.248780000000     0.058040000000     0.000490000000     0.449923   
C89      C      0.990790000000     0.246000000000     0.556090000000     0.433201   
C90      C      0.495550000000     0.245160000000     0.935130000000     0.44421    
C91      C      0.053980000000     0.244650000000     0.498730000000     0.440874   
C92      C      0.433590000000     0.246300000000     0.493330000000     0.435433   
C93      C      0.184310000000     0.243080000000     0.506790000000     0.426074   
C94      C      0.304330000000     0.252310000000     0.505910000000     0.447498   
C95      C      0.249730000000     0.188340000000     0.007360000000     0.437616   
C96      C      0.240480000000     0.308390000000     0.005420000000     0.444824   
C97      C      0.383630000000     0.269820000000     0.973970000000    -0.010399   
C98      C      0.383680000000     0.219300000000     0.005700000000    -0.0370003  
C99      C      0.352830000000     0.279720000000     0.990450000000    -0.0141091  
C100     C      0.355590000000     0.231090000000     0.525240000000     0.114664   
C101     C      0.136500000000     0.216990000000     0.985690000000    -0.0143756  
C102     C      0.133630000000     0.251300000000     0.534280000000    -0.0437801  
C103     C      0.103980000000     0.229060000000     0.975120000000    -0.0101174  
C104     C      0.103000000000     0.266380000000     0.522210000000     0.116243   
C105     C      0.223190000000     0.387890000000     0.973390000000    -0.0107903  
C106     C      0.274430000000     0.387380000000     0.503760000000    -0.0426699  
C107     C      0.213380000000     0.357120000000     0.990110000000    -0.013833   
C108     C      0.262760000000     0.359580000000     0.523790000000     0.114359   
C109     C      0.276350000000     0.140510000000     0.486990000000    -0.011499   
C110     C      0.241550000000     0.137890000000     0.535210000000    -0.0426334  
C111     C      0.264440000000     0.107890000000     0.976520000000    -0.0106511  
C112     C      0.226470000000     0.107360000000     0.022970000000     0.116256   
C113     C      0.277090000000     0.490010000000     0.855100000000    -0.0105156  
C114     C      0.238770000000     0.035210000000     0.854530000000    -0.0412134  
C115     C      0.263430000000     0.478150000000     0.886330000000    -0.00844014 
C116     C      0.224090000000     0.023500000000     0.885920000000     0.113707   
C117     C      0.276420000000     0.482130000000     0.607580000000    -0.0122354  
C118     C      0.224280000000     0.011100000000     0.606560000000    -0.0473856  
C119     C      0.265160000000     0.463510000000     0.637000000000    -0.00763246 
C120     C      0.213530000000     0.992500000000     0.635530000000     0.118997   
C121     C      0.013940000000     0.274600000000     0.855260000000    -0.00806935 
C122     C      0.461800000000     0.246040000000     0.855130000000    -0.0424028  
C123     C      0.023140000000     0.257770000000     0.886050000000    -0.00352714 
C124     C      0.471930000000     0.226870000000     0.884380000000     0.114564   
C125     C      0.497370000000     0.274270000000     0.607000000000    -0.0110675  
C126     C      0.472520000000     0.219990000000     0.605340000000    -0.0436421  
C127     C      0.017510000000     0.263950000000     0.635360000000     0.00153198 
C128     C      0.990930000000     0.210750000000     0.635280000000     0.104981   
C129     C      0.135960000000     0.006200000000     0.724960000000    -0.0124258  
C130     C      0.137420000000     0.462910000000     0.766030000000    -0.0415746  
C131     C      0.104710000000     0.017700000000     0.738150000000    -0.0105516  
C132     C      0.106580000000     0.475870000000     0.780650000000     0.115154   
C133     C      0.355620000000     0.030530000000     0.736160000000    -0.0119388  
C134     C      0.354770000000     0.982170000000     0.771090000000    -0.0438631  
C135     C      0.387350000000     0.019510000000     0.722170000000    -0.00801877 
C136     C      0.385900000000     0.471190000000     0.756760000000     0.114547   
C137     C      0.022860000000     0.357970000000     0.744800000000    -0.00595967 
C138     C      0.470150000000     0.356190000000     0.717100000000    -0.0426859  
C139     C      0.012490000000     0.387410000000     0.762630000000    -0.00621314 
C140     C      0.462240000000     0.389100000000     0.731000000000     0.112546   
C141     C      0.470390000000     0.136810000000     0.765340000000    -0.0117443  
C142     C      0.019210000000     0.138120000000     0.730930000000    -0.0416619  
C143     C      0.483160000000     0.107090000000     0.782020000000    -0.00767141 
C144     C      0.030780000000     0.107700000000     0.746660000000     0.116941   
C145     C      0.436000000000     0.500350000000     0.247350000000     0.444747   
C146     C      0.055980000000     0.993020000000     0.254790000000     0.443026   
C147     C      0.500840000000     0.557650000000     0.257000000000     0.440121   
C148     C      0.491460000000     0.937800000000     0.245550000000     0.447126   
C149     C      0.498680000000     0.741310000000     0.185200000000     0.445908   
C150     C      0.491760000000     0.753250000000     0.305450000000     0.429375   
C151     C      0.995920000000     0.687280000000     0.250630000000     0.425955   
C152     C      0.994560000000     0.807480000000     0.239140000000     0.420469   
C153     C      0.306170000000     0.000390000000     0.245150000000     0.429199   
C154     C      0.186130000000     0.990450000000     0.248750000000     0.43182    
C155     C      0.249130000000     0.503960000000     0.305960000000     0.42939    
C156     C      0.243600000000     0.486640000000     0.186080000000     0.442373   
C157     C      0.247140000000     0.002130000000     0.435980000000     0.443478   
C158     C      0.249080000000     0.494210000000     0.056860000000     0.432365   
C159     C      0.247370000000     0.937630000000     0.492750000000     0.428467   
C160     C      0.248780000000     0.558040000000     0.500490000000     0.447206   
C161     C      0.990790000000     0.746000000000     0.056090000000     0.432803   
C162     C      0.495550000000     0.745160000000     0.435140000000     0.444727   
C163     C      0.053980000000     0.744650000000     0.998730000000     0.43832    
C164     C      0.433590000000     0.746300000000     0.993330000000     0.435157   
C165     C      0.184310000000     0.743080000000     0.006790000000     0.429379   
C166     C      0.304330000000     0.752310000000     0.005910000000     0.450653   
C167     C      0.249730000000     0.688340000000     0.507360000000     0.43463    
C168     C      0.240480000000     0.808390000000     0.505420000000     0.441695   
C169     C      0.383630000000     0.769820000000     0.473970000000    -0.0116408  
C170     C      0.383680000000     0.719300000000     0.505700000000    -0.0423359  
C171     C      0.352830000000     0.779720000000     0.490450000000    -0.00895428 
C172     C      0.355590000000     0.731090000000     0.025240000000     0.113665   
C173     C      0.136500000000     0.716990000000     0.485690000000    -0.0130402  
C174     C      0.133630000000     0.751300000000     0.034280000000    -0.0434356  
C175     C      0.103980000000     0.729060000000     0.475120000000    -0.00832771 
C176     C      0.103000000000     0.766380000000     0.022210000000     0.11637    
C177     C      0.223190000000     0.887890000000     0.473390000000    -0.0120302  
C178     C      0.274430000000     0.887380000000     0.003760000000    -0.0373178  
C179     C      0.213380000000     0.857120000000     0.490110000000    -0.00866435 
C180     C      0.262760000000     0.859580000000     0.023790000000     0.113396   
C181     C      0.276350000000     0.640510000000     0.986990000000    -0.0162209  
C182     C      0.241550000000     0.637890000000     0.035210000000    -0.0424499  
C183     C      0.264440000000     0.607880000000     0.476520000000    -0.00996618 
C184     C      0.226470000000     0.607360000000     0.522970000000     0.116095   
C185     C      0.277090000000     0.990010000000     0.355100000000    -0.0111003  
C186     C      0.238770000000     0.535210000000     0.354530000000    -0.0411808  
C187     C      0.263430000000     0.978150000000     0.386330000000    -0.00860028 
C188     C      0.224090000000     0.523500000000     0.385920000000     0.113591   
C189     C      0.276420000000     0.982130000000     0.107580000000    -0.0126951  
C190     C      0.224280000000     0.511100000000     0.106560000000    -0.0481375  
C191     C      0.265160000000     0.963510000000     0.137000000000    -0.0075658  
C192     C      0.213530000000     0.492500000000     0.135530000000     0.119623   
C193     C      0.013940000000     0.774610000000     0.355250000000    -0.00815748 
C194     C      0.461800000000     0.746040000000     0.355130000000    -0.0424105  
C195     C      0.023140000000     0.757770000000     0.386050000000    -0.00350113 
C196     C      0.471930000000     0.726870000000     0.384380000000     0.114555   
C197     C      0.497370000000     0.774270000000     0.107000000000    -0.0110997  
C198     C      0.472520000000     0.719990000000     0.105340000000    -0.0436683  
C199     C      0.017510000000     0.763950000000     0.135360000000     0.001503   
C200     C      0.990930000000     0.710750000000     0.135280000000     0.105027   
C201     C      0.135960000000     0.506200000000     0.224960000000    -0.0131754  
C202     C      0.137420000000     0.962910000000     0.266030000000    -0.0416126  
C203     C      0.104710000000     0.517700000000     0.238150000000    -0.0106743  
C204     C      0.106580000000     0.975870000000     0.280650000000     0.115131   
C205     C      0.355620000000     0.530530000000     0.236160000000    -0.0119115  
C206     C      0.354770000000     0.482170000000     0.271090000000    -0.0435918  
C207     C      0.387350000000     0.519510000000     0.222170000000    -0.00836375 
C208     C      0.385900000000     0.971190000000     0.256760000000     0.114593   
C209     C      0.022860000000     0.857970000000     0.244800000000    -0.00600011 
C210     C      0.470150000000     0.856190000000     0.217100000000    -0.0427126  
C211     C      0.012490000000     0.887410000000     0.262630000000    -0.00621517 
C212     C      0.462240000000     0.889100000000     0.231000000000     0.112543   
C213     C      0.470390000000     0.636800000000     0.265340000000    -0.0117767  
C214     C      0.019210000000     0.638120000000     0.230930000000    -0.0416978  
C215     C      0.483160000000     0.607090000000     0.282020000000    -0.00764949 
C216     C      0.030780000000     0.607700000000     0.246660000000     0.116957   
C217     C      0.436000000000     0.500350000000     0.747350000000     0.444759   
C218     C      0.055980000000     0.993020000000     0.754790000000     0.443036   
C219     C      0.500840000000     0.557650000000     0.757000000000     0.439868   
C220     C      0.491460000000     0.937800000000     0.745550000000     0.447141   
C221     C      0.498680000000     0.741310000000     0.685200000000     0.445911   
C222     C      0.491760000000     0.753250000000     0.805450000000     0.429377   
C223     C      0.995920000000     0.687280000000     0.750630000000     0.425948   
C224     C      0.994560000000     0.807480000000     0.739140000000     0.420458   
C225     C      0.306170000000     0.000390000000     0.745150000000     0.429215   
C226     C      0.186130000000     0.990450000000     0.748750000000     0.431808   
C227     C      0.249130000000     0.503960000000     0.805960000000     0.429392   
C228     C      0.243600000000     0.486640000000     0.686080000000     0.442375   
C229     C      0.247140000000     0.002130000000     0.935980000000     0.443213   
C230     C      0.249080000000     0.494210000000     0.556860000000     0.432909   
C231     C      0.247370000000     0.937630000000     0.992750000000     0.428118   
C232     C      0.248780000000     0.558040000000     0.000490000000     0.450064   
C233     C      0.990790000000     0.746000000000     0.556090000000     0.433209   
C234     C      0.495550000000     0.745160000000     0.935130000000     0.444478   
C235     C      0.053980000000     0.744650000000     0.498730000000     0.440881   
C236     C      0.433590000000     0.746300000000     0.493330000000     0.43544    
C237     C      0.184310000000     0.743080000000     0.506790000000     0.426089   
C238     C      0.304330000000     0.752310000000     0.505910000000     0.447546   
C239     C      0.249730000000     0.688340000000     0.007360000000     0.437753   
C240     C      0.240480000000     0.808390000000     0.005420000000     0.444837   
C241     C      0.383630000000     0.769820000000     0.973970000000    -0.0103924  
C242     C      0.383680000000     0.719300000000     0.005700000000    -0.0369696  
C243     C      0.352830000000     0.779720000000     0.990450000000    -0.0141293  
C244     C      0.355590000000     0.731090000000     0.525240000000     0.114669   
C245     C      0.136500000000     0.716990000000     0.985690000000    -0.0144237  
C246     C      0.133630000000     0.751300000000     0.534280000000    -0.0437487  
C247     C      0.103980000000     0.729060000000     0.975120000000    -0.0101088  
C248     C      0.103000000000     0.766380000000     0.522210000000     0.116238   
C249     C      0.223190000000     0.887890000000     0.973390000000    -0.0107845  
C250     C      0.274430000000     0.887380000000     0.503760000000    -0.0426689  
C251     C      0.213380000000     0.857120000000     0.990110000000    -0.0138506  
C252     C      0.262760000000     0.859580000000     0.523790000000     0.114359   
C253     C      0.276350000000     0.640510000000     0.486990000000    -0.0114963  
C254     C      0.241550000000     0.637890000000     0.535210000000    -0.0426292  
C255     C      0.264440000000     0.607880000000     0.976520000000    -0.0106519  
C256     C      0.226470000000     0.607360000000     0.022970000000     0.116256   
C257     C      0.277090000000     0.990010000000     0.855100000000    -0.0111169  
C258     C      0.238770000000     0.535210000000     0.854530000000    -0.0411855  
C259     C      0.263430000000     0.978150000000     0.886330000000    -0.00860394 
C260     C      0.224090000000     0.523500000000     0.885920000000     0.113629   
C261     C      0.276420000000     0.982130000000     0.607580000000    -0.0126736  
C262     C      0.224280000000     0.511100000000     0.606560000000    -0.0481039  
C263     C      0.265160000000     0.963510000000     0.637000000000    -0.00758471 
C264     C      0.213530000000     0.492500000000     0.635530000000     0.119621   
C265     C      0.013940000000     0.774610000000     0.855260000000    -0.00817339 
C266     C      0.461800000000     0.746040000000     0.855130000000    -0.0424087  
C267     C      0.023140000000     0.757770000000     0.886050000000    -0.00347776 
C268     C      0.471930000000     0.726870000000     0.884380000000     0.114579   
C269     C      0.497370000000     0.774270000000     0.607000000000    -0.0110629  
C270     C      0.472520000000     0.719990000000     0.605340000000    -0.043645   
C271     C      0.017510000000     0.763950000000     0.635360000000     0.0015144  
C272     C      0.990930000000     0.710750000000     0.635280000000     0.104995   
C273     C      0.135960000000     0.506200000000     0.724960000000    -0.0132135  
C274     C      0.137420000000     0.962910000000     0.766030000000    -0.0416132  
C275     C      0.104710000000     0.517700000000     0.738150000000    -0.010657   
C276     C      0.106580000000     0.975870000000     0.780650000000     0.115145   
C277     C      0.355620000000     0.530530000000     0.736160000000    -0.0119142  
C278     C      0.354770000000     0.482170000000     0.771090000000    -0.0435857  
C279     C      0.387350000000     0.519510000000     0.722170000000    -0.00834828 
C280     C      0.385900000000     0.971190000000     0.756760000000     0.114605   
C281     C      0.022860000000     0.857970000000     0.744800000000    -0.00598617 
C282     C      0.470150000000     0.856190000000     0.717100000000    -0.0427016  
C283     C      0.012490000000     0.887410000000     0.762630000000    -0.00620637 
C284     C      0.462240000000     0.889100000000     0.731000000000     0.112553   
C285     C      0.470390000000     0.636800000000     0.765340000000    -0.0117726  
C286     C      0.019210000000     0.638120000000     0.730930000000    -0.0416787  
C287     C      0.483160000000     0.607090000000     0.782020000000    -0.00764859 
C288     C      0.030780000000     0.607700000000     0.746660000000     0.116956   
C289     C      0.936000000000     0.000350000000     0.247350000000     0.44492    
C290     C      0.555980000000     0.493020000000     0.254790000000     0.444304   
C291     C      0.000840000000     0.057650000000     0.257000000000     0.446732   
C292     C      0.991460000000     0.437800000000     0.245550000000     0.446059   
C293     C      0.998680000000     0.241300000000     0.185200000000     0.432924   
C294     C      0.991760000000     0.253250000000     0.305450000000     0.421674   
C295     C      0.495920000000     0.187280000000     0.250630000000     0.433478   
C296     C      0.494560000000     0.307490000000     0.239140000000     0.428156   
C297     C      0.806170000000     0.500390000000     0.245150000000     0.428698   
C298     C      0.686130000000     0.490460000000     0.248750000000     0.432483   
C299     C      0.749130000000     0.003960000000     0.305960000000     0.429903   
C300     C      0.743600000000     0.986640000000     0.186080000000     0.441913   
C301     C      0.747140000000     0.502130000000     0.435980000000     0.443106   
C302     C      0.749090000000     0.994210000000     0.056860000000     0.432339   
C303     C      0.747370000000     0.437630000000     0.492750000000     0.428503   
C304     C      0.748780000000     0.058040000000     0.500490000000     0.44741    
C305     C      0.490790000000     0.246000000000     0.056090000000     0.434396   
C306     C      0.995550000000     0.245160000000     0.435140000000     0.443398   
C307     C      0.553980000000     0.244650000000     0.998730000000     0.439257   
C308     C      0.933580000000     0.246300000000     0.993330000000     0.434659   
C309     C      0.684310000000     0.243080000000     0.006790000000     0.429406   
C310     C      0.804330000000     0.252310000000     0.005910000000     0.450613   
C311     C      0.749730000000     0.188340000000     0.507360000000     0.434464   
C312     C      0.740480000000     0.308390000000     0.505420000000     0.44169    
C313     C      0.883630000000     0.269820000000     0.473970000000    -0.011619   
C314     C      0.883670000000     0.219300000000     0.505700000000    -0.0423562  
C315     C      0.852830000000     0.279720000000     0.490450000000    -0.00894847 
C316     C      0.855590000000     0.231090000000     0.025240000000     0.1137     
C317     C      0.636500000000     0.216990000000     0.485690000000    -0.0130292  
C318     C      0.633630000000     0.251300000000     0.034280000000    -0.0434854  
C319     C      0.603980000000     0.229060000000     0.475120000000    -0.00827687 
C320     C      0.603000000000     0.266380000000     0.022210000000     0.116478   
C321     C      0.723190000000     0.387890000000     0.473390000000    -0.0120126  
C322     C      0.774430000000     0.387380000000     0.003760000000    -0.0372905  
C323     C      0.713380000000     0.357120000000     0.490110000000    -0.0086751  
C324     C      0.762760000000     0.359580000000     0.023790000000     0.113408   
C325     C      0.776350000000     0.140510000000     0.986990000000    -0.0162136  
C326     C      0.741550000000     0.137890000000     0.035210000000    -0.04248    
C327     C      0.764440000000     0.107890000000     0.476520000000    -0.00997427 
C328     C      0.726470000000     0.107360000000     0.522970000000     0.116184   
C329     C      0.777080000000     0.490010000000     0.355100000000    -0.0104299  
C330     C      0.738770000000     0.035210000000     0.354530000000    -0.0412086  
C331     C      0.763430000000     0.478150000000     0.386330000000    -0.00846084 
C332     C      0.724090000000     0.023500000000     0.385920000000     0.113708   
C333     C      0.776430000000     0.482130000000     0.107580000000    -0.0123216  
C334     C      0.724280000000     0.011100000000     0.106560000000    -0.0474931  
C335     C      0.765160000000     0.463510000000     0.137000000000    -0.0075795  
C336     C      0.713530000000     0.992500000000     0.135530000000     0.119085   
C337     C      0.513940000000     0.274600000000     0.355250000000    -0.011493   
C338     C      0.961800000000     0.246040000000     0.355130000000    -0.0431382  
C339     C      0.523140000000     0.257770000000     0.386050000000    -0.00762996 
C340     C      0.971930000000     0.226870000000     0.384380000000     0.114379   
C341     C      0.997370000000     0.274270000000     0.107000000000    -0.0244317  
C342     C      0.972520000000     0.219990000000     0.105340000000    -0.0418546  
C343     C      0.517510000000     0.263950000000     0.135360000000    -0.00597322 
C344     C      0.490930000000     0.210750000000     0.135280000000     0.115246   
C345     C      0.635960000000     0.006200000000     0.224960000000    -0.0124357  
C346     C      0.637420000000     0.462910000000     0.266030000000    -0.0416056  
C347     C      0.604710000000     0.017700000000     0.238150000000    -0.0105011  
C348     C      0.606580000000     0.475870000000     0.280650000000     0.115257   
C349     C      0.855620000000     0.030530000000     0.236160000000    -0.0119259  
C350     C      0.854770000000     0.982170000000     0.271090000000    -0.0438309  
C351     C      0.887350000000     0.019510000000     0.222170000000    -0.0080607  
C352     C      0.885900000000     0.471190000000     0.256760000000     0.114613   
C353     C      0.522860000000     0.357970000000     0.244800000000    -0.00949441 
C354     C      0.970150000000     0.356190000000     0.217100000000    -0.0433672  
C355     C      0.512490000000     0.387410000000     0.262630000000    -0.0101799  
C356     C      0.962240000000     0.389100000000     0.231000000000     0.1122     
C357     C      0.970400000000     0.136810000000     0.265340000000    -0.0113269  
C358     C      0.519210000000     0.138120000000     0.230930000000    -0.0462347  
C359     C      0.983150000000     0.107090000000     0.282020000000    -0.0122791  
C360     C      0.530770000000     0.107700000000     0.246660000000     0.117431   
C361     C      0.936000000000     0.000350000000     0.747350000000     0.444959   
C362     C      0.555980000000     0.493020000000     0.754790000000     0.444315   
C363     C      0.000840000000     0.057650000000     0.757000000000     0.446487   
C364     C      0.991460000000     0.437800000000     0.745550000000     0.446072   
C365     C      0.998680000000     0.241300000000     0.685200000000     0.432896   
C366     C      0.991760000000     0.253250000000     0.805450000000     0.421669   
C367     C      0.495920000000     0.187280000000     0.750630000000     0.433482   
C368     C      0.494560000000     0.307490000000     0.739140000000     0.428156   
C369     C      0.806170000000     0.500390000000     0.745150000000     0.428697   
C370     C      0.686130000000     0.490460000000     0.748750000000     0.432485   
C371     C      0.749130000000     0.003960000000     0.805960000000     0.429921   
C372     C      0.743600000000     0.986640000000     0.686080000000     0.441898   
C373     C      0.747140000000     0.502130000000     0.935980000000     0.442826   
C374     C      0.749090000000     0.994210000000     0.556860000000     0.432885   
C375     C      0.747370000000     0.437630000000     0.992750000000     0.428154   
C376     C      0.748780000000     0.058040000000     0.000490000000     0.450249   
C377     C      0.490790000000     0.246000000000     0.556090000000     0.434805   
C378     C      0.995550000000     0.245160000000     0.935130000000     0.44315    
C379     C      0.553980000000     0.244650000000     0.498730000000     0.441822   
C380     C      0.933580000000     0.246300000000     0.493330000000     0.43494    
C381     C      0.684310000000     0.243080000000     0.506790000000     0.426116   
C382     C      0.804330000000     0.252310000000     0.505910000000     0.44751    
C383     C      0.749730000000     0.188340000000     0.007360000000     0.437582   
C384     C      0.740480000000     0.308390000000     0.005420000000     0.444832   
C385     C      0.883630000000     0.269820000000     0.973970000000    -0.0103735  
C386     C      0.883670000000     0.219300000000     0.005700000000    -0.0370062  
C387     C      0.852830000000     0.279720000000     0.990450000000    -0.0141112  
C388     C      0.855590000000     0.231090000000     0.525240000000     0.114702   
C389     C      0.636500000000     0.216990000000     0.985690000000    -0.0144129  
C390     C      0.633630000000     0.251300000000     0.534280000000    -0.0437989  
C391     C      0.603980000000     0.229060000000     0.975120000000    -0.0100611  
C392     C      0.603000000000     0.266380000000     0.522210000000     0.116347   
C393     C      0.723190000000     0.387890000000     0.973390000000    -0.0107652  
C394     C      0.774430000000     0.387380000000     0.503760000000    -0.0426444  
C395     C      0.713380000000     0.357120000000     0.990110000000    -0.0138667  
C396     C      0.762760000000     0.359580000000     0.523790000000     0.114372   
C397     C      0.776350000000     0.140510000000     0.486990000000    -0.0115046  
C398     C      0.741550000000     0.137890000000     0.535210000000    -0.0426584  
C399     C      0.764440000000     0.107890000000     0.976520000000    -0.0106539  
C400     C      0.726470000000     0.107360000000     0.022970000000     0.116345   
C401     C      0.777080000000     0.490010000000     0.855100000000    -0.0104259  
C402     C      0.738770000000     0.035210000000     0.854530000000    -0.0412123  
C403     C      0.763430000000     0.478150000000     0.886330000000    -0.00846182 
C404     C      0.724090000000     0.023500000000     0.885920000000     0.113746   
C405     C      0.776430000000     0.482130000000     0.607580000000    -0.0122812  
C406     C      0.724280000000     0.011100000000     0.606560000000    -0.047429   
C407     C      0.765160000000     0.463510000000     0.637000000000    -0.00760102 
C408     C      0.713530000000     0.992500000000     0.635530000000     0.119057   
C409     C      0.513940000000     0.274600000000     0.855260000000    -0.0115086  
C410     C      0.961800000000     0.246040000000     0.855130000000    -0.0431366  
C411     C      0.523140000000     0.257770000000     0.886050000000    -0.00760491 
C412     C      0.971930000000     0.226870000000     0.884380000000     0.114403   
C413     C      0.997370000000     0.274270000000     0.607000000000    -0.0244421  
C414     C      0.972520000000     0.219990000000     0.605340000000    -0.041826   
C415     C      0.517510000000     0.263950000000     0.635360000000    -0.00598936 
C416     C      0.490930000000     0.210750000000     0.635280000000     0.115245   
C417     C      0.635960000000     0.006200000000     0.724960000000    -0.0124481  
C418     C      0.637420000000     0.462910000000     0.766030000000    -0.0416056  
C419     C      0.604710000000     0.017700000000     0.738150000000    -0.0104803  
C420     C      0.606580000000     0.475870000000     0.780650000000     0.115271   
C421     C      0.855620000000     0.030530000000     0.736160000000    -0.0119296  
C422     C      0.854770000000     0.982170000000     0.771090000000    -0.0438341  
C423     C      0.887350000000     0.019510000000     0.722170000000    -0.00803437 
C424     C      0.885900000000     0.471190000000     0.756760000000     0.114623   
C425     C      0.522860000000     0.357970000000     0.744800000000    -0.00948672 
C426     C      0.970150000000     0.356190000000     0.717100000000    -0.043357   
C427     C      0.512490000000     0.387410000000     0.762630000000    -0.0101778  
C428     C      0.962240000000     0.389100000000     0.731000000000     0.112208   
C429     C      0.970400000000     0.136810000000     0.765340000000    -0.0113221  
C430     C      0.519210000000     0.138120000000     0.730930000000    -0.0462223  
C431     C      0.983150000000     0.107090000000     0.782020000000    -0.012285   
C432     C      0.530770000000     0.107700000000     0.746660000000     0.11743    
C433     C      0.936000000000     0.500350000000     0.247350000000     0.444104   
C434     C      0.555980000000     0.993020000000     0.254790000000     0.444334   
C435     C      0.000840000000     0.557650000000     0.257000000000     0.44673    
C436     C      0.991460000000     0.937800000000     0.245550000000     0.446025   
C437     C      0.998680000000     0.741310000000     0.185200000000     0.432971   
C438     C      0.991760000000     0.753250000000     0.305450000000     0.421677   
C439     C      0.495920000000     0.687280000000     0.250630000000     0.433477   
C440     C      0.494560000000     0.807480000000     0.239140000000     0.428243   
C441     C      0.806170000000     0.000390000000     0.245150000000     0.429204   
C442     C      0.686130000000     0.990450000000     0.248750000000     0.43182    
C443     C      0.749130000000     0.503960000000     0.305960000000     0.429393   
C444     C      0.743600000000     0.486640000000     0.186080000000     0.442358   
C445     C      0.747140000000     0.002130000000     0.435980000000     0.443517   
C446     C      0.749090000000     0.494210000000     0.056860000000     0.432397   
C447     C      0.747370000000     0.937630000000     0.492750000000     0.428498   
C448     C      0.748780000000     0.558040000000     0.500490000000     0.44752    
C449     C      0.490790000000     0.746000000000     0.056090000000     0.4344     
C450     C      0.995550000000     0.745160000000     0.435140000000     0.443667   
C451     C      0.553980000000     0.744650000000     0.998730000000     0.439251   
C452     C      0.933580000000     0.746300000000     0.993330000000     0.434666   
C453     C      0.684310000000     0.743080000000     0.006790000000     0.429438   
C454     C      0.804330000000     0.752310000000     0.005910000000     0.450676   
C455     C      0.749730000000     0.688340000000     0.507360000000     0.434584   
C456     C      0.740480000000     0.808390000000     0.505420000000     0.441689   
C457     C      0.883630000000     0.769820000000     0.473970000000    -0.011618   
C458     C      0.883670000000     0.719300000000     0.505700000000    -0.0423535  
C459     C      0.852830000000     0.779720000000     0.490450000000    -0.00894595 
C460     C      0.855590000000     0.731090000000     0.025240000000     0.113699   
C461     C      0.636500000000     0.716990000000     0.485690000000    -0.013071   
C462     C      0.633630000000     0.751300000000     0.034280000000    -0.0434523  
C463     C      0.603980000000     0.729060000000     0.475120000000    -0.00825949 
C464     C      0.603000000000     0.766380000000     0.022210000000     0.116473   
C465     C      0.723190000000     0.887890000000     0.473390000000    -0.0120111  
C466     C      0.774430000000     0.887380000000     0.003760000000    -0.037273   
C467     C      0.713380000000     0.857120000000     0.490110000000    -0.00867523 
C468     C      0.762760000000     0.859580000000     0.023790000000     0.113405   
C469     C      0.776350000000     0.640510000000     0.986990000000    -0.0162413  
C470     C      0.741550000000     0.637890000000     0.035210000000    -0.0424738  
C471     C      0.764440000000     0.607880000000     0.476520000000    -0.00996677 
C472     C      0.726470000000     0.607360000000     0.522970000000     0.116183   
C473     C      0.777080000000     0.990010000000     0.355100000000    -0.0110028  
C474     C      0.738770000000     0.535210000000     0.354530000000    -0.0411798  
C475     C      0.763430000000     0.978150000000     0.386330000000    -0.00862076 
C476     C      0.724090000000     0.523500000000     0.385920000000     0.11363    
C477     C      0.776430000000     0.982130000000     0.107580000000    -0.0127371  
C478     C      0.724280000000     0.511100000000     0.106560000000    -0.0481745  
C479     C      0.765160000000     0.963510000000     0.137000000000    -0.0075345  
C480     C      0.713530000000     0.492500000000     0.135530000000     0.119674   
C481     C      0.513940000000     0.774610000000     0.355250000000    -0.0115936  
C482     C      0.961800000000     0.746040000000     0.355130000000    -0.0431437  
C483     C      0.523140000000     0.757770000000     0.386050000000    -0.00757946 
C484     C      0.971930000000     0.726870000000     0.384380000000     0.114393   
C485     C      0.997370000000     0.774270000000     0.107000000000    -0.0244137  
C486     C      0.972520000000     0.719990000000     0.105340000000    -0.0418574  
C487     C      0.517510000000     0.763950000000     0.135360000000    -0.00598354 
C488     C      0.490930000000     0.710750000000     0.135280000000     0.115259   
C489     C      0.635960000000     0.506200000000     0.224960000000    -0.0131919  
C490     C      0.637420000000     0.962910000000     0.266030000000    -0.0416428  
C491     C      0.604710000000     0.517700000000     0.238150000000    -0.0106017  
C492     C      0.606580000000     0.975870000000     0.280650000000     0.115247   
C493     C      0.855620000000     0.530530000000     0.236160000000    -0.0119028  
C494     C      0.854770000000     0.482170000000     0.271090000000    -0.043566   
C495     C      0.887350000000     0.519510000000     0.222170000000    -0.00837612 
C496     C      0.885900000000     0.971190000000     0.256760000000     0.114668   
C497     C      0.522860000000     0.857970000000     0.244800000000    -0.00951531 
C498     C      0.970150000000     0.856190000000     0.217100000000    -0.0433813  
C499     C      0.512490000000     0.887410000000     0.262630000000    -0.0101615  
C500     C      0.962240000000     0.889100000000     0.231000000000     0.112206   
C501     C      0.970400000000     0.636800000000     0.265340000000    -0.011354   
C502     C      0.519210000000     0.638120000000     0.230930000000    -0.0462542  
C503     C      0.983150000000     0.607090000000     0.282020000000    -0.012263   
C504     C      0.530770000000     0.607700000000     0.246660000000     0.117446   
C505     C      0.936000000000     0.500350000000     0.747350000000     0.444116   
C506     C      0.555980000000     0.993020000000     0.754790000000     0.444347   
C507     C      0.000840000000     0.557650000000     0.757000000000     0.446485   
C508     C      0.991460000000     0.937800000000     0.745550000000     0.446038   
C509     C      0.998680000000     0.741310000000     0.685200000000     0.432943   
C510     C      0.991760000000     0.753250000000     0.805450000000     0.421672   
C511     C      0.495920000000     0.687280000000     0.750630000000     0.433481   
C512     C      0.494560000000     0.807480000000     0.739140000000     0.428244   
C513     C      0.806170000000     0.000390000000     0.745150000000     0.429221   
C514     C      0.686130000000     0.990450000000     0.748750000000     0.431807   
C515     C      0.749130000000     0.503960000000     0.805960000000     0.429396   
C516     C      0.743600000000     0.486640000000     0.686080000000     0.44236    
C517     C      0.747140000000     0.002130000000     0.935980000000     0.443251   
C518     C      0.749090000000     0.494210000000     0.556860000000     0.432944   
C519     C      0.747370000000     0.937630000000     0.992750000000     0.428148   
C520     C      0.748780000000     0.558040000000     0.000490000000     0.450389   
C521     C      0.490790000000     0.746000000000     0.556090000000     0.434811   
C522     C      0.995550000000     0.745160000000     0.935130000000     0.443419   
C523     C      0.553980000000     0.744650000000     0.498730000000     0.441828   
C524     C      0.933580000000     0.746300000000     0.493330000000     0.434948   
C525     C      0.684310000000     0.743080000000     0.506790000000     0.426131   
C526     C      0.804330000000     0.752310000000     0.505910000000     0.447558   
C527     C      0.749730000000     0.688340000000     0.007360000000     0.43772    
C528     C      0.740480000000     0.808390000000     0.005420000000     0.444845   
C529     C      0.883630000000     0.769820000000     0.973970000000    -0.010367   
C530     C      0.883670000000     0.719300000000     0.005700000000    -0.0369754  
C531     C      0.852830000000     0.779720000000     0.990450000000    -0.0141313  
C532     C      0.855590000000     0.731090000000     0.525240000000     0.114706   
C533     C      0.636500000000     0.716990000000     0.985690000000    -0.014461   
C534     C      0.633630000000     0.751300000000     0.534280000000    -0.0437674  
C535     C      0.603980000000     0.729060000000     0.975120000000    -0.0100526  
C536     C      0.603000000000     0.766380000000     0.522210000000     0.116341   
C537     C      0.723190000000     0.887890000000     0.973390000000    -0.0107595  
C538     C      0.774430000000     0.887380000000     0.503760000000    -0.0426434  
C539     C      0.713380000000     0.857120000000     0.990110000000    -0.0138844  
C540     C      0.762760000000     0.859580000000     0.523790000000     0.114371   
C541     C      0.776350000000     0.640510000000     0.486990000000    -0.0115019  
C542     C      0.741550000000     0.637890000000     0.535210000000    -0.0426542  
C543     C      0.764440000000     0.607880000000     0.976520000000    -0.0106548  
C544     C      0.726470000000     0.607360000000     0.022970000000     0.116345   
C545     C      0.777080000000     0.990010000000     0.855100000000    -0.0110193  
C546     C      0.738770000000     0.535210000000     0.854530000000    -0.0411845  
C547     C      0.763430000000     0.978150000000     0.886330000000    -0.00862443 
C548     C      0.724090000000     0.523500000000     0.885920000000     0.113667   
C549     C      0.776430000000     0.982130000000     0.607580000000    -0.0127153  
C550     C      0.724280000000     0.511100000000     0.606560000000    -0.0481408  
C551     C      0.765160000000     0.963510000000     0.637000000000    -0.00755347 
C552     C      0.713530000000     0.492500000000     0.635530000000     0.119672   
C553     C      0.513940000000     0.774610000000     0.855260000000    -0.0116092  
C554     C      0.961800000000     0.746040000000     0.855130000000    -0.0431422  
C555     C      0.523140000000     0.757770000000     0.886050000000    -0.00755434 
C556     C      0.971930000000     0.726870000000     0.884380000000     0.114418   
C557     C      0.997370000000     0.774270000000     0.607000000000    -0.0244239  
C558     C      0.972520000000     0.719990000000     0.605340000000    -0.0418286  
C559     C      0.517510000000     0.763950000000     0.635360000000    -0.00599972 
C560     C      0.490930000000     0.710750000000     0.635280000000     0.115258   
C561     C      0.635960000000     0.506200000000     0.724960000000    -0.0132298  
C562     C      0.637420000000     0.962910000000     0.766030000000    -0.0416434  
C563     C      0.604710000000     0.517700000000     0.738150000000    -0.0105843  
C564     C      0.606580000000     0.975870000000     0.780650000000     0.115261   
C565     C      0.855620000000     0.530530000000     0.736160000000    -0.0119056  
C566     C      0.854770000000     0.482170000000     0.771090000000    -0.04356    
C567     C      0.887350000000     0.519510000000     0.722170000000    -0.00836053 
C568     C      0.885900000000     0.971190000000     0.756760000000     0.11468    
C569     C      0.522860000000     0.857970000000     0.744800000000    -0.00950753 
C570     C      0.970150000000     0.856190000000     0.717100000000    -0.0433711  
C571     C      0.512490000000     0.887410000000     0.762630000000    -0.0101594  
C572     C      0.962240000000     0.889100000000     0.731000000000     0.112215   
C573     C      0.970400000000     0.636800000000     0.765340000000    -0.0113494  
C574     C      0.519210000000     0.638120000000     0.730930000000    -0.0462417  
C575     C      0.983150000000     0.607090000000     0.782020000000    -0.0122686  
C576     C      0.530770000000     0.607700000000     0.746660000000     0.117445   
H1       H      0.374820000000     0.204590000000     0.485650000000     0.0734148  
H2       H      0.377370000000     0.258940000000     0.450750000000     0.0570541  
H3       H      0.337340000000     0.292200000000     0.473120000000     0.0527806  
H4       H      0.398750000000     0.204120000000     0.021120000000     0.071092   
H5       H      0.364760000000     0.244270000000     0.046190000000     0.03932    
H6       H      0.398040000000     0.291230000000     0.468810000000     0.0534591  
H7       H      0.359000000000     0.297070000000     0.009330000000     0.060867   
H8       H      0.127700000000     0.231200000000     0.050310000000     0.0709589  
H9       H      0.132990000000     0.194190000000     0.998410000000     0.0489594  
H10      H      0.090490000000     0.209190000000     0.464260000000     0.0471542  
H11      H      0.146980000000     0.269230000000     0.048260000000     0.0695704  
H12      H      0.109030000000     0.288070000000     0.508500000000     0.0333803  
H13      H      0.151100000000     0.211860000000     0.464330000000     0.0502521  
H14      H      0.107680000000     0.247000000000     0.456130000000     0.0416384  
H15      H      0.288350000000     0.378130000000     0.983320000000     0.0625172  
H16      H      0.233410000000     0.381500000000     0.449910000000     0.0444031  
H17      H      0.200540000000     0.341670000000     0.473000000000     0.0454436  
H18      H      0.290280000000     0.402320000000     0.018620000000     0.0681469  
H19      H      0.250200000000     0.369100000000     0.044960000000     0.0350192  
H20      H      0.201860000000     0.402550000000     0.468750000000     0.0495813  
H21      H      0.196390000000     0.363380000000     0.509280000000     0.0455495  
H22      H      0.261450000000     0.131860000000     0.051410000000     0.076923   
H23      H      0.298960000000     0.137040000000     0.000000000000     0.0622845  
H24      H      0.284390000000     0.094310000000     0.965960000000     0.0520477  
H25      H      0.223590000000     0.151400000000     0.048990000000     0.0723561  
H26      H      0.205240000000     0.113560000000     0.508670000000     0.0391665  
H27      H      0.281720000000     0.155040000000     0.965620000000     0.0548406  
H28      H      0.246740000000     0.111500000000     0.457330000000     0.0574793  
H29      H      0.257290000000     0.053110000000     0.359950000000     0.0664629  
H30      H      0.297620000000     0.505500000000     0.360640000000     0.0459618  
H31      H      0.282700000000     0.467330000000     0.400700000000     0.0467223  
H32      H      0.220160000000     0.046720000000     0.339820000000     0.0662674  
H33      H      0.202920000000     0.008990000000     0.380190000000     0.0358156  
H34      H      0.286110000000     0.469600000000     0.341070000000     0.0472967  
H35      H      0.246150000000     0.459060000000     0.380900000000     0.0446111  
H36      H      0.234190000000     0.034090000000     0.114750000000     0.0826249  
H37      H      0.290770000000     0.002640000000     0.115740000000     0.0527383  
H38      H      0.285800000000     0.457930000000     0.152420000000     0.045113   
H39      H      0.203450000000     0.016360000000     0.091330000000     0.0861627  
H40      H      0.200900000000     0.471130000000     0.126760000000     0.0332819  
H41      H      0.291780000000     0.466630000000     0.092800000000     0.0492779  
H42      H      0.254510000000     0.440850000000     0.128860000000     0.048853   
H43      H      0.448310000000     0.267220000000     0.363090000000     0.0676015  
H44      H      0.003780000000     0.298030000000     0.361660000000     0.0490685  
H45      H      0.037050000000     0.274210000000     0.401290000000     0.0438398  
H46      H      0.446020000000     0.231210000000     0.340100000000     0.0668559  
H47      H      0.483120000000     0.204510000000     0.376140000000     0.0332565  
H48      H      0.035500000000     0.279100000000     0.340820000000     0.0478995  
H49      H      0.038870000000     0.237610000000     0.379830000000     0.0437448  
H50      H      0.448610000000     0.228100000000     0.112670000000     0.0695339  
H51      H      0.475720000000     0.286170000000     0.116050000000     0.0517208  
H52      H      0.022750000000     0.284940000000     0.150500000000     0.0462249  
H53      H      0.469320000000     0.198790000000     0.089990000000     0.0714187  
H54      H      0.012750000000     0.198420000000     0.127260000000     0.0433971  
H55      H      0.010940000000     0.291650000000     0.092590000000     0.0701843  
H56      H      0.040240000000     0.254200000000     0.126390000000     0.0593407  
H57      H      0.131540000000     0.443470000000     0.249210000000     0.0688284  
H58      H      0.131020000000     0.990640000000     0.204220000000     0.0627769  
H59      H      0.090440000000     0.026510000000     0.217870000000     0.0713992  
H60      H      0.152620000000     0.453020000000     0.285210000000     0.0651959  
H61      H      0.112940000000     0.492780000000     0.299860000000     0.0362427  
H62      H      0.149150000000     0.027250000000     0.216380000000     0.0723446  
H63      H      0.109360000000     0.038030000000     0.254300000000     0.0571659  
H64      H      0.359990000000     0.995590000000     0.293230000000     0.0633714  
H65      H      0.360430000000     0.047490000000     0.255790000000     0.0478659  
H66      H      0.401830000000     0.040650000000     0.216010000000     0.0475025  
H67      H      0.340430000000     0.461190000000     0.277940000000     0.068645   
H68      H      0.379980000000     0.455900000000     0.236070000000     0.0435249  
H69      H      0.341910000000     0.043100000000     0.217460000000     0.0490507  
H70      H      0.382630000000     0.506110000000     0.199920000000     0.0530864  
H71      H      0.479170000000     0.359430000000     0.192480000000     0.0669934  
H72      H      0.036060000000     0.365210000000     0.223120000000     0.0529556  
H73      H      0.033780000000     0.401450000000     0.269000000000     0.0612884  
H74      H      0.448120000000     0.341940000000     0.215380000000     0.0687682  
H75      H      0.446300000000     0.385230000000     0.251660000000     0.0428366  
H76      H      0.039170000000     0.344330000000     0.260380000000     0.0515816  
H77      H      0.000330000000     0.380290000000     0.284970000000     0.0578909  
H78      H      0.507030000000     0.131780000000     0.208380000000     0.0813523  
H79      H      0.453920000000     0.129380000000     0.246140000000     0.0558442  
H80      H      0.462910000000     0.092310000000     0.290120000000     0.0456472  
H81      H      0.039880000000     0.153130000000     0.224590000000     0.0738658  
H82      H      0.046500000000     0.114780000000     0.266620000000     0.0327748  
H83      H      0.456900000000     0.151280000000     0.282790000000     0.0480061  
H84      H      0.996910000000     0.114540000000     0.303270000000     0.0471137  
H85      H      0.374820000000     0.204590000000     0.985650000000     0.0706982  
H86      H      0.377370000000     0.258940000000     0.950750000000     0.0566577  
H87      H      0.337340000000     0.292200000000     0.973120000000     0.0532994  
H88      H      0.398750000000     0.204120000000     0.521120000000     0.071434   
H89      H      0.364760000000     0.244270000000     0.546190000000     0.0388865  
H90      H      0.398040000000     0.291230000000     0.968810000000     0.0528075  
H91      H      0.359000000000     0.297070000000     0.509330000000     0.058143   
H92      H      0.127700000000     0.231200000000     0.550310000000     0.0706936  
H93      H      0.132990000000     0.194190000000     0.498410000000     0.0496125  
H94      H      0.090490000000     0.209190000000     0.964260000000     0.0473057  
H95      H      0.146980000000     0.269230000000     0.548260000000     0.0695493  
H96      H      0.109030000000     0.288070000000     0.008500000000     0.0341855  
H97      H      0.151100000000     0.211860000000     0.964330000000     0.0501989  
H98      H      0.107680000000     0.247000000000     0.956130000000     0.0416106  
H99      H      0.288350000000     0.378130000000     0.483320000000     0.0652128  
H100     H      0.233410000000     0.381500000000     0.949910000000     0.0439944  
H101     H      0.200540000000     0.341670000000     0.973000000000     0.0459448  
H102     H      0.290280000000     0.402320000000     0.518620000000     0.0684613  
H103     H      0.250200000000     0.369100000000     0.544960000000     0.0345707  
H104     H      0.201860000000     0.402550000000     0.968750000000     0.0489194  
H105     H      0.196390000000     0.363380000000     0.009280000000     0.0483077  
H106     H      0.261450000000     0.131860000000     0.551410000000     0.0768123  
H107     H      0.298960000000     0.137040000000     0.500000000000     0.0595752  
H108     H      0.284390000000     0.094310000000     0.465960000000     0.0524165  
H109     H      0.223590000000     0.151400000000     0.548990000000     0.0722778  
H110     H      0.205240000000     0.113560000000     0.008670000000     0.0398804  
H111     H      0.281720000000     0.155040000000     0.465620000000     0.0542869  
H112     H      0.246740000000     0.111500000000     0.957330000000     0.057147   
H113     H      0.257290000000     0.053110000000     0.859950000000     0.0664367  
H114     H      0.297620000000     0.505500000000     0.860640000000     0.0459032  
H115     H      0.282700000000     0.467330000000     0.900700000000     0.046648   
H116     H      0.220160000000     0.046720000000     0.839820000000     0.0662582  
H117     H      0.202920000000     0.008990000000     0.880190000000     0.0357526  
H118     H      0.286110000000     0.469600000000     0.841070000000     0.0472722  
H119     H      0.246150000000     0.459060000000     0.880900000000     0.0445863  
H120     H      0.234190000000     0.034090000000     0.614750000000     0.0825701  
H121     H      0.290770000000     0.002640000000     0.615740000000     0.0526239  
H122     H      0.285800000000     0.457930000000     0.652420000000     0.0450699  
H123     H      0.203450000000     0.016360000000     0.591330000000     0.0859925  
H124     H      0.200900000000     0.471130000000     0.626760000000     0.0331569  
H125     H      0.291780000000     0.466630000000     0.592800000000     0.0490194  
H126     H      0.254510000000     0.440850000000     0.628860000000     0.0487694  
H127     H      0.448310000000     0.267220000000     0.863090000000     0.0675759  
H128     H      0.003780000000     0.298030000000     0.861660000000     0.0490096  
H129     H      0.037050000000     0.274210000000     0.901290000000     0.0437236  
H130     H      0.446020000000     0.231210000000     0.840100000000     0.0668461  
H131     H      0.483120000000     0.204510000000     0.876140000000     0.0331965  
H132     H      0.035500000000     0.279100000000     0.840820000000     0.0478723  
H133     H      0.038870000000     0.237610000000     0.879830000000     0.043693   
H134     H      0.448610000000     0.228100000000     0.612670000000     0.0694221  
H135     H      0.475720000000     0.286170000000     0.616050000000     0.0515864  
H136     H      0.022750000000     0.284940000000     0.650500000000     0.0461851  
H137     H      0.469320000000     0.198790000000     0.589990000000     0.0711531  
H138     H      0.012750000000     0.198420000000     0.627260000000     0.0432903  
H139     H      0.010940000000     0.291650000000     0.592590000000     0.0699996  
H140     H      0.040240000000     0.254200000000     0.626390000000     0.0592756  
H141     H      0.131540000000     0.443470000000     0.749210000000     0.0688131  
H142     H      0.131020000000     0.990640000000     0.704230000000     0.0627293  
H143     H      0.090440000000     0.026510000000     0.717870000000     0.0713588  
H144     H      0.152620000000     0.453020000000     0.785210000000     0.0651791  
H145     H      0.112940000000     0.492780000000     0.799860000000     0.0361988  
H146     H      0.149150000000     0.027250000000     0.716380000000     0.0723363  
H147     H      0.109360000000     0.038030000000     0.754300000000     0.0571528  
H148     H      0.359990000000     0.995590000000     0.793230000000     0.0633385  
H149     H      0.360430000000     0.047490000000     0.755790000000     0.0478548  
H150     H      0.401830000000     0.040650000000     0.716010000000     0.0474503  
H151     H      0.340430000000     0.461190000000     0.777940000000     0.0686333  
H152     H      0.379980000000     0.455900000000     0.736070000000     0.0435092  
H153     H      0.341910000000     0.043100000000     0.717460000000     0.0490231  
H154     H      0.382630000000     0.506110000000     0.699920000000     0.0530117  
H155     H      0.479170000000     0.359430000000     0.692480000000     0.0669239  
H156     H      0.036060000000     0.365210000000     0.723120000000     0.0529213  
H157     H      0.033780000000     0.401450000000     0.769000000000     0.0612696  
H158     H      0.448120000000     0.341940000000     0.715380000000     0.0687461  
H159     H      0.446300000000     0.385230000000     0.751660000000     0.042831   
H160     H      0.039170000000     0.344330000000     0.760380000000     0.0515663  
H161     H      0.000330000000     0.380290000000     0.784970000000     0.0578618  
H162     H      0.507030000000     0.131780000000     0.708380000000     0.0813077  
H163     H      0.453920000000     0.129380000000     0.746140000000     0.0558291  
H164     H      0.462910000000     0.092310000000     0.790120000000     0.0456145  
H165     H      0.039880000000     0.153130000000     0.724590000000     0.0738446  
H166     H      0.046500000000     0.114780000000     0.766620000000     0.0327621  
H167     H      0.456900000000     0.151280000000     0.782790000000     0.0479899  
H168     H      0.996910000000     0.114540000000     0.803270000000     0.0470678  
H169     H      0.374820000000     0.704590000000     0.485650000000     0.0734061  
H170     H      0.377370000000     0.758940000000     0.450750000000     0.0570535  
H171     H      0.337340000000     0.792200000000     0.473120000000     0.0527706  
H172     H      0.398750000000     0.704120000000     0.021120000000     0.0710784  
H173     H      0.364760000000     0.744270000000     0.046190000000     0.0393194  
H174     H      0.398040000000     0.791230000000     0.468810000000     0.053456   
H175     H      0.359000000000     0.797070000000     0.009330000000     0.0608737  
H176     H      0.127700000000     0.731200000000     0.050310000000     0.0709463  
H177     H      0.132990000000     0.694190000000     0.998410000000     0.0489492  
H178     H      0.090490000000     0.709190000000     0.464260000000     0.0471383  
H179     H      0.146980000000     0.769230000000     0.048260000000     0.0695645  
H180     H      0.109030000000     0.788070000000     0.508500000000     0.0333803  
H181     H      0.151100000000     0.711860000000     0.464330000000     0.0502566  
H182     H      0.107680000000     0.747000000000     0.456130000000     0.0416336  
H183     H      0.288350000000     0.878130000000     0.983320000000     0.0625015  
H184     H      0.233410000000     0.881500000000     0.449910000000     0.0443913  
H185     H      0.200540000000     0.841670000000     0.473000000000     0.04544    
H186     H      0.290280000000     0.902320000000     0.018620000000     0.0681377  
H187     H      0.250200000000     0.869100000000     0.044960000000     0.0350173  
H188     H      0.201860000000     0.902550000000     0.468750000000     0.0495601  
H189     H      0.196390000000     0.863380000000     0.509280000000     0.0455424  
H190     H      0.261450000000     0.631860000000     0.051410000000     0.076913   
H191     H      0.298960000000     0.637040000000     0.000000000000     0.0622866  
H192     H      0.284390000000     0.594310000000     0.965960000000     0.0520059  
H193     H      0.223590000000     0.651400000000     0.048990000000     0.0723565  
H194     H      0.205240000000     0.613550000000     0.508670000000     0.0391548  
H195     H      0.281720000000     0.655040000000     0.965620000000     0.0548436  
H196     H      0.246740000000     0.611490000000     0.457330000000     0.0574698  
H197     H      0.257290000000     0.553110000000     0.359950000000     0.0664299  
H198     H      0.297620000000     0.005500000000     0.360640000000     0.0463611  
H199     H      0.282700000000     0.967330000000     0.400700000000     0.0466976  
H200     H      0.220160000000     0.546720000000     0.339820000000     0.066232   
H201     H      0.202920000000     0.508990000000     0.380190000000     0.035702   
H202     H      0.286110000000     0.969600000000     0.341070000000     0.0473695  
H203     H      0.246150000000     0.959060000000     0.380900000000     0.0445753  
H204     H      0.234190000000     0.534090000000     0.114750000000     0.0827066  
H205     H      0.290770000000     0.502640000000     0.115740000000     0.0523612  
H206     H      0.285800000000     0.957940000000     0.152420000000     0.0450556  
H207     H      0.203450000000     0.516360000000     0.091330000000     0.0861757  
H208     H      0.200900000000     0.971120000000     0.126760000000     0.0333576  
H209     H      0.291780000000     0.966630000000     0.092800000000     0.0493356  
H210     H      0.254510000000     0.940850000000     0.128860000000     0.0488432  
H211     H      0.448310000000     0.767220000000     0.363090000000     0.0676031  
H212     H      0.003780000000     0.798030000000     0.361660000000     0.0490957  
H213     H      0.037050000000     0.774210000000     0.401290000000     0.043822   
H214     H      0.446020000000     0.731210000000     0.340100000000     0.066854   
H215     H      0.483120000000     0.704510000000     0.376140000000     0.0332391  
H216     H      0.035500000000     0.779100000000     0.340820000000     0.047929   
H217     H      0.038870000000     0.737610000000     0.379830000000     0.0437275  
H218     H      0.448610000000     0.728100000000     0.112670000000     0.0695328  
H219     H      0.475720000000     0.786170000000     0.116050000000     0.0517167  
H220     H      0.022750000000     0.784940000000     0.150500000000     0.0462178  
H221     H      0.469320000000     0.698790000000     0.089990000000     0.0714089  
H222     H      0.012750000000     0.698420000000     0.127260000000     0.0433892  
H223     H      0.010940000000     0.791650000000     0.092590000000     0.0701717  
H224     H      0.040240000000     0.754200000000     0.126390000000     0.0593433  
H225     H      0.131540000000     0.943470000000     0.249210000000     0.0688181  
H226     H      0.131020000000     0.490640000000     0.204220000000     0.0631651  
H227     H      0.090440000000     0.526510000000     0.217870000000     0.0713111  
H228     H      0.152620000000     0.953020000000     0.285210000000     0.0651871  
H229     H      0.112940000000     0.992790000000     0.299860000000     0.0361793  
H230     H      0.149150000000     0.527240000000     0.216380000000     0.0724689  
H231     H      0.109360000000     0.538030000000     0.254300000000     0.0571102  
H232     H      0.359990000000     0.495590000000     0.293230000000     0.0634063  
H233     H      0.360430000000     0.547490000000     0.255790000000     0.0478026  
H234     H      0.401830000000     0.540650000000     0.216010000000     0.047541   
H235     H      0.340430000000     0.961190000000     0.277940000000     0.0686659  
H236     H      0.379980000000     0.955900000000     0.236070000000     0.0434482  
H237     H      0.341910000000     0.543100000000     0.217460000000     0.049021   
H238     H      0.382630000000     0.006110000000     0.199920000000     0.0531591  
H239     H      0.479170000000     0.859430000000     0.192480000000     0.0669889  
H240     H      0.036060000000     0.865210000000     0.223120000000     0.0529495  
H241     H      0.033780000000     0.901450000000     0.269000000000     0.0612805  
H242     H      0.448120000000     0.841940000000     0.215380000000     0.068776   
H243     H      0.446300000000     0.885230000000     0.251660000000     0.0428346  
H244     H      0.039170000000     0.844330000000     0.260380000000     0.0515886  
H245     H      0.000330000000     0.880280000000     0.284970000000     0.057876   
H246     H      0.507030000000     0.631790000000     0.208380000000     0.0813516  
H247     H      0.453920000000     0.629380000000     0.246140000000     0.0558445  
H248     H      0.462910000000     0.592310000000     0.290120000000     0.0456037  
H249     H      0.039880000000     0.653130000000     0.224590000000     0.0738663  
H250     H      0.046500000000     0.614790000000     0.266620000000     0.0327554  
H251     H      0.456900000000     0.651280000000     0.282790000000     0.0480026  
H252     H      0.996910000000     0.614540000000     0.303270000000     0.0470775  
H253     H      0.374820000000     0.704590000000     0.985650000000     0.0706748  
H254     H      0.377370000000     0.758940000000     0.950750000000     0.0566552  
H255     H      0.337340000000     0.792200000000     0.973120000000     0.0532918  
H256     H      0.398750000000     0.704120000000     0.521120000000     0.0714217  
H257     H      0.364760000000     0.744270000000     0.546190000000     0.0388838  
H258     H      0.398040000000     0.791230000000     0.968810000000     0.0528018  
H259     H      0.359000000000     0.797070000000     0.509330000000     0.058138   
H260     H      0.127700000000     0.731200000000     0.550310000000     0.0706793  
H261     H      0.132990000000     0.694190000000     0.498410000000     0.0496064  
H262     H      0.090490000000     0.709190000000     0.964260000000     0.0472901  
H263     H      0.146980000000     0.769230000000     0.548260000000     0.0695435  
H264     H      0.109030000000     0.788070000000     0.008500000000     0.0341889  
H265     H      0.151100000000     0.711860000000     0.964330000000     0.0502027  
H266     H      0.107680000000     0.747000000000     0.956130000000     0.0416058  
H267     H      0.288350000000     0.878130000000     0.483320000000     0.0652056  
H268     H      0.233410000000     0.881500000000     0.949910000000     0.043981   
H269     H      0.200540000000     0.841670000000     0.973000000000     0.0459426  
H270     H      0.290280000000     0.902320000000     0.518620000000     0.0684531  
H271     H      0.250200000000     0.869100000000     0.544960000000     0.0345674  
H272     H      0.201860000000     0.902550000000     0.968750000000     0.0488958  
H273     H      0.196390000000     0.863380000000     0.009280000000     0.0483099  
H274     H      0.261450000000     0.631860000000     0.551410000000     0.0768013  
H275     H      0.298960000000     0.637040000000     0.500000000000     0.0595586  
H276     H      0.284390000000     0.594310000000     0.465960000000     0.0523773  
H277     H      0.223590000000     0.651400000000     0.548990000000     0.0722778  
H278     H      0.205240000000     0.613550000000     0.008670000000     0.0398739  
H279     H      0.281720000000     0.655040000000     0.465620000000     0.0542862  
H280     H      0.246740000000     0.611490000000     0.957330000000     0.0571353  
H281     H      0.257290000000     0.553110000000     0.859950000000     0.066403   
H282     H      0.297620000000     0.005500000000     0.860640000000     0.0463154  
H283     H      0.282700000000     0.967330000000     0.900700000000     0.0466219  
H284     H      0.220160000000     0.546720000000     0.839820000000     0.0662222  
H285     H      0.202920000000     0.508990000000     0.880190000000     0.0356351  
H286     H      0.286110000000     0.969600000000     0.841070000000     0.0473477  
H287     H      0.246150000000     0.959060000000     0.880900000000     0.0445489  
H288     H      0.234190000000     0.534090000000     0.614750000000     0.0826552  
H289     H      0.290770000000     0.502640000000     0.615740000000     0.0522302  
H290     H      0.285800000000     0.957940000000     0.652420000000     0.0450097  
H291     H      0.203450000000     0.516360000000     0.591330000000     0.0860056  
H292     H      0.200900000000     0.971120000000     0.626760000000     0.0332352  
H293     H      0.291780000000     0.966630000000     0.592800000000     0.0490793  
H294     H      0.254510000000     0.940850000000     0.628860000000     0.0487589  
H295     H      0.448310000000     0.767220000000     0.863090000000     0.0675775  
H296     H      0.003780000000     0.798030000000     0.861660000000     0.0490367  
H297     H      0.037050000000     0.774210000000     0.901290000000     0.0437054  
H298     H      0.446020000000     0.731210000000     0.840100000000     0.0668441  
H299     H      0.483120000000     0.704510000000     0.876140000000     0.0331785  
H300     H      0.035500000000     0.779100000000     0.840820000000     0.0479016  
H301     H      0.038870000000     0.737610000000     0.879830000000     0.0436753  
H302     H      0.448610000000     0.728100000000     0.612670000000     0.0694205  
H303     H      0.475720000000     0.786170000000     0.616050000000     0.0515818  
H304     H      0.022750000000     0.784940000000     0.650500000000     0.0461777  
H305     H      0.469320000000     0.698790000000     0.589990000000     0.0711415  
H306     H      0.012750000000     0.698420000000     0.627260000000     0.0432815  
H307     H      0.010940000000     0.791650000000     0.592590000000     0.0699861  
H308     H      0.040240000000     0.754200000000     0.626390000000     0.0592779  
H309     H      0.131540000000     0.943470000000     0.749210000000     0.0688023  
H310     H      0.131020000000     0.490640000000     0.704230000000     0.0631316  
H311     H      0.090440000000     0.526510000000     0.717870000000     0.0712674  
H312     H      0.152620000000     0.953020000000     0.785210000000     0.0651698  
H313     H      0.112940000000     0.992790000000     0.799860000000     0.0361329  
H314     H      0.149150000000     0.527240000000     0.716380000000     0.0724646  
H315     H      0.109360000000     0.538030000000     0.754300000000     0.0570954  
H316     H      0.359990000000     0.495590000000     0.793230000000     0.0633747  
H317     H      0.360430000000     0.547490000000     0.755790000000     0.0477894  
H318     H      0.401830000000     0.540650000000     0.716010000000     0.0474899  
H319     H      0.340430000000     0.961190000000     0.777940000000     0.068655   
H320     H      0.379980000000     0.955900000000     0.736070000000     0.0434297  
H321     H      0.341910000000     0.543100000000     0.717460000000     0.0489922  
H322     H      0.382630000000     0.006110000000     0.699920000000     0.0530871  
H323     H      0.479170000000     0.859430000000     0.692480000000     0.066919   
H324     H      0.036060000000     0.865210000000     0.723120000000     0.0529149  
H325     H      0.033780000000     0.901450000000     0.769000000000     0.0612615  
H326     H      0.448120000000     0.841940000000     0.715380000000     0.0687538  
H327     H      0.446300000000     0.885230000000     0.751660000000     0.0428288  
H328     H      0.039170000000     0.844330000000     0.760380000000     0.0515732  
H329     H      0.000330000000     0.880280000000     0.784970000000     0.0578469  
H330     H      0.507030000000     0.631790000000     0.708380000000     0.0813066  
H331     H      0.453920000000     0.629380000000     0.746140000000     0.0558291  
H332     H      0.462910000000     0.592310000000     0.790120000000     0.0455696  
H333     H      0.039880000000     0.653130000000     0.724590000000     0.0738449  
H334     H      0.046500000000     0.614790000000     0.766620000000     0.0327421  
H335     H      0.456900000000     0.651280000000     0.782790000000     0.0479861  
H336     H      0.996910000000     0.614540000000     0.803270000000     0.0470305  
H337     H      0.874820000000     0.204590000000     0.485650000000     0.0733456  
H338     H      0.877370000000     0.258940000000     0.450750000000     0.0569946  
H339     H      0.837340000000     0.292200000000     0.473120000000     0.0527215  
H340     H      0.898750000000     0.204120000000     0.021120000000     0.0709531  
H341     H      0.864760000000     0.244270000000     0.046190000000     0.0392746  
H342     H      0.898040000000     0.291230000000     0.468810000000     0.0532007  
H343     H      0.859000000000     0.297070000000     0.009330000000     0.0607547  
H344     H      0.627700000000     0.231200000000     0.050310000000     0.0707442  
H345     H      0.632990000000     0.194190000000     0.998410000000     0.0486429  
H346     H      0.590490000000     0.209190000000     0.464260000000     0.0464273  
H347     H      0.646980000000     0.269230000000     0.048260000000     0.0695078  
H348     H      0.609030000000     0.288070000000     0.508500000000     0.0330595  
H349     H      0.651100000000     0.211860000000     0.464330000000     0.0500942  
H350     H      0.607680000000     0.247000000000     0.456130000000     0.041256   
H351     H      0.788350000000     0.378130000000     0.983320000000     0.062431   
H352     H      0.733410000000     0.381500000000     0.449910000000     0.0443453  
H353     H      0.700540000000     0.341670000000     0.473000000000     0.0453333  
H354     H      0.790280000000     0.402320000000     0.018620000000     0.0680512  
H355     H      0.750200000000     0.369100000000     0.044960000000     0.0349774  
H356     H      0.701860000000     0.402550000000     0.468750000000     0.0493941  
H357     H      0.696400000000     0.363380000000     0.509280000000     0.0453975  
H358     H      0.761450000000     0.131860000000     0.051410000000     0.0769109  
H359     H      0.798960000000     0.137040000000     0.000000000000     0.062238   
H360     H      0.784390000000     0.094310000000     0.965960000000     0.0519769  
H361     H      0.723590000000     0.151400000000     0.048990000000     0.0723021  
H362     H      0.705240000000     0.113560000000     0.508670000000     0.0389868  
H363     H      0.781710000000     0.155040000000     0.965620000000     0.054832   
H364     H      0.746740000000     0.111500000000     0.457330000000     0.0574351  
H365     H      0.757290000000     0.053110000000     0.359950000000     0.0664404  
H366     H      0.797610000000     0.505500000000     0.360640000000     0.0458662  
H367     H      0.782700000000     0.467330000000     0.400700000000     0.0466456  
H368     H      0.720160000000     0.046720000000     0.339820000000     0.0661933  
H369     H      0.702920000000     0.008990000000     0.380190000000     0.035651   
H370     H      0.786110000000     0.469600000000     0.341070000000     0.0472276  
H371     H      0.746150000000     0.459060000000     0.380900000000     0.0445636  
H372     H      0.734190000000     0.034090000000     0.114750000000     0.0826185  
H373     H      0.790770000000     0.002640000000     0.115740000000     0.052684   
H374     H      0.785800000000     0.457930000000     0.152420000000     0.0450674  
H375     H      0.703450000000     0.016360000000     0.091330000000     0.0860242  
H376     H      0.700900000000     0.471130000000     0.126760000000     0.0331229  
H377     H      0.791780000000     0.466630000000     0.092800000000     0.0492069  
H378     H      0.754510000000     0.440850000000     0.128860000000     0.0488068  
H379     H      0.948320000000     0.267220000000     0.363090000000     0.0670606  
H380     H      0.503780000000     0.298030000000     0.361660000000     0.0474467  
H381     H      0.537050000000     0.274210000000     0.401290000000     0.0433104  
H382     H      0.946020000000     0.231210000000     0.340100000000     0.0669474  
H383     H      0.983120000000     0.204510000000     0.376140000000     0.0320613  
H384     H      0.535500000000     0.279100000000     0.340820000000     0.0478559  
H385     H      0.538870000000     0.237610000000     0.379830000000     0.0430609  
H386     H      0.948610000000     0.228100000000     0.112670000000     0.0691703  
H387     H      0.975720000000     0.286170000000     0.116050000000     0.0533814  
H388     H      0.522740000000     0.284940000000     0.150500000000     0.046107   
H389     H      0.969320000000     0.198790000000     0.089990000000     0.0702622  
H390     H      0.512750000000     0.198420000000     0.127260000000     0.0370098  
H391     H      0.510940000000     0.291650000000     0.092590000000     0.0629829  
H392     H      0.540240000000     0.254200000000     0.126390000000     0.0600659  
H393     H      0.631540000000     0.443470000000     0.249210000000     0.0686635  
H394     H      0.631020000000     0.990640000000     0.204220000000     0.0625138  
H395     H      0.590440000000     0.026510000000     0.217870000000     0.0710621  
H396     H      0.652620000000     0.453020000000     0.285210000000     0.0651373  
H397     H      0.612940000000     0.492780000000     0.299860000000     0.0359078  
H398     H      0.649150000000     0.027250000000     0.216380000000     0.0722678  
H399     H      0.609360000000     0.038030000000     0.254300000000     0.0569453  
H400     H      0.859990000000     0.995590000000     0.293230000000     0.0632679  
H401     H      0.860440000000     0.047490000000     0.255790000000     0.0477647  
H402     H      0.901830000000     0.040650000000     0.216010000000     0.0470991  
H403     H      0.840420000000     0.461190000000     0.277940000000     0.0686086  
H404     H      0.879980000000     0.455900000000     0.236070000000     0.0435103  
H405     H      0.841910000000     0.043100000000     0.217460000000     0.0489848  
H406     H      0.882640000000     0.506110000000     0.199920000000     0.0529193  
H407     H      0.979170000000     0.359430000000     0.192480000000     0.0658345  
H408     H      0.536060000000     0.365210000000     0.223120000000     0.0521489  
H409     H      0.533780000000     0.401450000000     0.269000000000     0.0609324  
H410     H      0.948120000000     0.341940000000     0.215380000000     0.0687538  
H411     H      0.946300000000     0.385230000000     0.251660000000     0.0423591  
H412     H      0.539170000000     0.344330000000     0.260380000000     0.0516535  
H413     H      0.500330000000     0.380290000000     0.284970000000     0.0561758  
H414     H      0.007030000000     0.131780000000     0.208380000000     0.0826138  
H415     H      0.953920000000     0.129380000000     0.246140000000     0.054849   
H416     H      0.962910000000     0.092310000000     0.290120000000     0.0458719  
H417     H      0.539880000000     0.153130000000     0.224590000000     0.0739983  
H418     H      0.546500000000     0.114780000000     0.266620000000     0.0315621  
H419     H      0.956900000000     0.151280000000     0.282790000000     0.0477371  
H420     H      0.496910000000     0.114540000000     0.303270000000     0.0479239  
H421     H      0.874820000000     0.204590000000     0.985650000000     0.0706238  
H422     H      0.877370000000     0.258940000000     0.950750000000     0.0565973  
H423     H      0.837340000000     0.292200000000     0.973120000000     0.0532414  
H424     H      0.898750000000     0.204120000000     0.521120000000     0.0712948  
H425     H      0.864760000000     0.244270000000     0.546190000000     0.03884    
H426     H      0.898040000000     0.291230000000     0.968810000000     0.0525486  
H427     H      0.859000000000     0.297070000000     0.509330000000     0.0580238  
H428     H      0.627700000000     0.231200000000     0.550310000000     0.0704764  
H429     H      0.632990000000     0.194190000000     0.498410000000     0.0492976  
H430     H      0.590490000000     0.209190000000     0.964260000000     0.0465809  
H431     H      0.646980000000     0.269230000000     0.548260000000     0.0694864  
H432     H      0.609030000000     0.288070000000     0.008500000000     0.0338717  
H433     H      0.651100000000     0.211860000000     0.964330000000     0.0500411  
H434     H      0.607680000000     0.247000000000     0.956130000000     0.0412286  
H435     H      0.788350000000     0.378130000000     0.483320000000     0.0651347  
H436     H      0.733410000000     0.381500000000     0.949910000000     0.0439349  
H437     H      0.700540000000     0.341670000000     0.973000000000     0.0458372  
H438     H      0.790280000000     0.402320000000     0.518620000000     0.0683665  
H439     H      0.750200000000     0.369100000000     0.544960000000     0.0345271  
H440     H      0.701860000000     0.402550000000     0.968750000000     0.0487298  
H441     H      0.696400000000     0.363380000000     0.009280000000     0.0481701  
H442     H      0.761450000000     0.131860000000     0.551410000000     0.0768     
H443     H      0.798960000000     0.137040000000     0.500000000000     0.059519   
H444     H      0.784390000000     0.094310000000     0.465960000000     0.0523462  
H445     H      0.723590000000     0.151400000000     0.548990000000     0.072223   
H446     H      0.705240000000     0.113560000000     0.008670000000     0.0397056  
H447     H      0.781710000000     0.155040000000     0.465620000000     0.0542759  
H448     H      0.746740000000     0.111500000000     0.957330000000     0.0571015  
H449     H      0.757290000000     0.053110000000     0.859950000000     0.0664142  
H450     H      0.797610000000     0.505500000000     0.860640000000     0.0458078  
H451     H      0.782700000000     0.467330000000     0.900700000000     0.0465714  
H452     H      0.720160000000     0.046720000000     0.839820000000     0.0661841  
H453     H      0.702920000000     0.008990000000     0.880190000000     0.0355878  
H454     H      0.786110000000     0.469600000000     0.841070000000     0.0472032  
H455     H      0.746150000000     0.459060000000     0.880900000000     0.0445388  
H456     H      0.734190000000     0.034090000000     0.614750000000     0.0825635  
H457     H      0.790770000000     0.002640000000     0.615740000000     0.0525691  
H458     H      0.785800000000     0.457930000000     0.652420000000     0.0450241  
H459     H      0.703450000000     0.016360000000     0.591330000000     0.0858526  
H460     H      0.700900000000     0.471130000000     0.626760000000     0.0329967  
H461     H      0.791780000000     0.466630000000     0.592800000000     0.0489473  
H462     H      0.754510000000     0.440850000000     0.628860000000     0.0487228  
H463     H      0.948320000000     0.267220000000     0.863090000000     0.0670351  
H464     H      0.503780000000     0.298030000000     0.861660000000     0.0473867  
H465     H      0.537050000000     0.274210000000     0.901290000000     0.0431942  
H466     H      0.946020000000     0.231210000000     0.840100000000     0.0669377  
H467     H      0.983120000000     0.204510000000     0.876140000000     0.0320019  
H468     H      0.535500000000     0.279100000000     0.840820000000     0.0478273  
H469     H      0.538870000000     0.237610000000     0.879830000000     0.0430086  
H470     H      0.948610000000     0.228100000000     0.612670000000     0.0690573  
H471     H      0.975720000000     0.286170000000     0.616050000000     0.0532533  
H472     H      0.522740000000     0.284940000000     0.650500000000     0.0460681  
H473     H      0.969320000000     0.198790000000     0.589990000000     0.0699928  
H474     H      0.512750000000     0.198420000000     0.627260000000     0.0368815  
H475     H      0.510940000000     0.291650000000     0.592590000000     0.0627703  
H476     H      0.540240000000     0.254200000000     0.626390000000     0.0600032  
H477     H      0.631540000000     0.443470000000     0.749210000000     0.0686476  
H478     H      0.631020000000     0.990640000000     0.704230000000     0.0624652  
H479     H      0.590440000000     0.026510000000     0.717870000000     0.0710205  
H480     H      0.652620000000     0.453020000000     0.785210000000     0.0651204  
H481     H      0.612940000000     0.492780000000     0.799860000000     0.0358637  
H482     H      0.649150000000     0.027250000000     0.716380000000     0.0722591  
H483     H      0.609360000000     0.038030000000     0.754300000000     0.0569322  
H484     H      0.859990000000     0.995590000000     0.793230000000     0.0632351  
H485     H      0.860440000000     0.047490000000     0.755790000000     0.0477534  
H486     H      0.901830000000     0.040650000000     0.716010000000     0.047046   
H487     H      0.840420000000     0.461190000000     0.777940000000     0.068597   
H488     H      0.879980000000     0.455900000000     0.736070000000     0.0434945  
H489     H      0.841910000000     0.043100000000     0.717460000000     0.048957   
H490     H      0.882640000000     0.506110000000     0.699920000000     0.052844   
H491     H      0.979170000000     0.359430000000     0.692480000000     0.0657623  
H492     H      0.536060000000     0.365210000000     0.723120000000     0.0521123  
H493     H      0.533780000000     0.401450000000     0.769000000000     0.0609133  
H494     H      0.948120000000     0.341940000000     0.715380000000     0.0687315  
H495     H      0.946300000000     0.385230000000     0.751660000000     0.0423532  
H496     H      0.539170000000     0.344330000000     0.760380000000     0.0516386  
H497     H      0.500330000000     0.380290000000     0.784970000000     0.0561448  
H498     H      0.007030000000     0.131780000000     0.708380000000     0.0825735  
H499     H      0.953920000000     0.129380000000     0.746140000000     0.0548321  
H500     H      0.962910000000     0.092310000000     0.790120000000     0.0458401  
H501     H      0.539880000000     0.153130000000     0.724590000000     0.0739766  
H502     H      0.546500000000     0.114780000000     0.766620000000     0.0315482  
H503     H      0.956900000000     0.151280000000     0.782790000000     0.0477209  
H504     H      0.496910000000     0.114540000000     0.803270000000     0.0478773  
H505     H      0.874820000000     0.704590000000     0.485650000000     0.0733368  
H506     H      0.877370000000     0.758940000000     0.450750000000     0.0569941  
H507     H      0.837340000000     0.792200000000     0.473120000000     0.0527117  
H508     H      0.898750000000     0.704120000000     0.021120000000     0.0709392  
H509     H      0.864760000000     0.744270000000     0.046190000000     0.0392741  
H510     H      0.898040000000     0.791230000000     0.468810000000     0.0531982  
H511     H      0.859000000000     0.797070000000     0.009330000000     0.0607617  
H512     H      0.627700000000     0.731200000000     0.050310000000     0.0707315  
H513     H      0.632990000000     0.694190000000     0.998410000000     0.0486323  
H514     H      0.590490000000     0.709190000000     0.464260000000     0.0464111  
H515     H      0.646980000000     0.769230000000     0.048260000000     0.0695021  
H516     H      0.609030000000     0.788070000000     0.508500000000     0.0330604  
H517     H      0.651100000000     0.711860000000     0.464330000000     0.0500987  
H518     H      0.607680000000     0.747000000000     0.456130000000     0.0412514  
H519     H      0.788350000000     0.878130000000     0.983320000000     0.0624157  
H520     H      0.733410000000     0.881500000000     0.449910000000     0.0443339  
H521     H      0.700540000000     0.841670000000     0.473000000000     0.04533    
H522     H      0.790280000000     0.902320000000     0.018620000000     0.0680425  
H523     H      0.750200000000     0.869100000000     0.044960000000     0.0349756  
H524     H      0.701860000000     0.902550000000     0.468750000000     0.0493739  
H525     H      0.696400000000     0.863380000000     0.509280000000     0.045391   
H526     H      0.761450000000     0.631860000000     0.051410000000     0.0769009  
H527     H      0.798960000000     0.637040000000     0.000000000000     0.06224    
H528     H      0.784390000000     0.594310000000     0.965960000000     0.0519351  
H529     H      0.723590000000     0.651400000000     0.048990000000     0.0723024  
H530     H      0.705240000000     0.613550000000     0.508670000000     0.0389748  
H531     H      0.781710000000     0.655040000000     0.965620000000     0.0548349  
H532     H      0.746740000000     0.611490000000     0.457330000000     0.0574256  
H533     H      0.757290000000     0.553110000000     0.359950000000     0.0664076  
H534     H      0.797610000000     0.005500000000     0.360640000000     0.0462627  
H535     H      0.782700000000     0.967330000000     0.400700000000     0.0466219  
H536     H      0.720160000000     0.546720000000     0.339820000000     0.0661579  
H537     H      0.702920000000     0.508990000000     0.380190000000     0.0355367  
H538     H      0.786110000000     0.969600000000     0.341070000000     0.0472997  
H539     H      0.746150000000     0.959060000000     0.380900000000     0.0445286  
H540     H      0.734190000000     0.534090000000     0.114750000000     0.0826994  
H541     H      0.790770000000     0.502640000000     0.115740000000     0.0523087  
H542     H      0.785800000000     0.957940000000     0.152420000000     0.045011   
H543     H      0.703450000000     0.516360000000     0.091330000000     0.0860359  
H544     H      0.700900000000     0.971120000000     0.126760000000     0.0331984  
H545     H      0.791780000000     0.966630000000     0.092800000000     0.0492649  
H546     H      0.754510000000     0.940850000000     0.128860000000     0.0487972  
H547     H      0.948320000000     0.767220000000     0.363090000000     0.0670633  
H548     H      0.503780000000     0.798030000000     0.361660000000     0.0474769  
H549     H      0.537050000000     0.774210000000     0.401290000000     0.0432939  
H550     H      0.946020000000     0.731210000000     0.340100000000     0.0669453  
H551     H      0.983120000000     0.704510000000     0.376140000000     0.0320438  
H552     H      0.535500000000     0.779100000000     0.340820000000     0.0478854  
H553     H      0.538870000000     0.737610000000     0.379830000000     0.0430435  
H554     H      0.948610000000     0.728100000000     0.112670000000     0.0691693  
H555     H      0.975720000000     0.786170000000     0.116050000000     0.0533762  
H556     H      0.522740000000     0.784940000000     0.150500000000     0.0461004  
H557     H      0.969320000000     0.698790000000     0.089990000000     0.0702519  
H558     H      0.512750000000     0.698420000000     0.127260000000     0.0370021  
H559     H      0.510940000000     0.791650000000     0.092590000000     0.0629781  
H560     H      0.540240000000     0.754200000000     0.126390000000     0.0600675  
H561     H      0.631540000000     0.943470000000     0.249210000000     0.0686537  
H562     H      0.631020000000     0.490640000000     0.204220000000     0.0628961  
H563     H      0.590440000000     0.526510000000     0.217870000000     0.0709737  
H564     H      0.652620000000     0.953020000000     0.285210000000     0.0651289  
H565     H      0.612940000000     0.992790000000     0.299860000000     0.035848   
H566     H      0.649150000000     0.527240000000     0.216380000000     0.0723909  
H567     H      0.609360000000     0.538030000000     0.254300000000     0.0568898  
H568     H      0.859990000000     0.495590000000     0.293230000000     0.0633007  
H569     H      0.860440000000     0.547490000000     0.255790000000     0.0477018  
H570     H      0.901830000000     0.540650000000     0.216010000000     0.0471362  
H571     H      0.840420000000     0.961190000000     0.277940000000     0.0686294  
H572     H      0.879980000000     0.955900000000     0.236070000000     0.0434346  
H573     H      0.841910000000     0.543100000000     0.217460000000     0.0489551  
H574     H      0.882640000000     0.006110000000     0.199920000000     0.0529933  
H575     H      0.979170000000     0.859430000000     0.192480000000     0.0658323  
H576     H      0.536060000000     0.865210000000     0.223120000000     0.0521454  
H577     H      0.533780000000     0.901450000000     0.269000000000     0.0609258  
H578     H      0.948120000000     0.841940000000     0.215380000000     0.0687615  
H579     H      0.946300000000     0.885230000000     0.251660000000     0.0423582  
H580     H      0.539170000000     0.844330000000     0.260380000000     0.0516605  
H581     H      0.500330000000     0.880280000000     0.284970000000     0.0561648  
H582     H      0.007030000000     0.631790000000     0.208380000000     0.0826143  
H583     H      0.953920000000     0.629380000000     0.246140000000     0.054848   
H584     H      0.962910000000     0.592310000000     0.290120000000     0.0458286  
H585     H      0.539880000000     0.653130000000     0.224590000000     0.073999   
H586     H      0.546500000000     0.614790000000     0.266620000000     0.0315416  
H587     H      0.956900000000     0.651280000000     0.282790000000     0.0477333  
H588     H      0.496910000000     0.614540000000     0.303270000000     0.0478883  
H589     H      0.874820000000     0.704590000000     0.985650000000     0.0706002  
H590     H      0.877370000000     0.758940000000     0.950750000000     0.0565949  
H591     H      0.837340000000     0.792200000000     0.973120000000     0.0532341  
H592     H      0.898750000000     0.704120000000     0.521120000000     0.0712823  
H593     H      0.864760000000     0.744270000000     0.546190000000     0.0388374  
H594     H      0.898040000000     0.791230000000     0.968810000000     0.0525437  
H595     H      0.859000000000     0.797070000000     0.509330000000     0.0580192  
H596     H      0.627700000000     0.731200000000     0.550310000000     0.070462   
H597     H      0.632990000000     0.694190000000     0.498410000000     0.0492911  
H598     H      0.590490000000     0.709190000000     0.964260000000     0.0465651  
H599     H      0.646980000000     0.769230000000     0.548260000000     0.0694807  
H600     H      0.609030000000     0.788070000000     0.008500000000     0.0338759  
H601     H      0.651100000000     0.711860000000     0.964330000000     0.0500448  
H602     H      0.607680000000     0.747000000000     0.956130000000     0.0412241  
H603     H      0.788350000000     0.878130000000     0.483320000000     0.0651279  
H604     H      0.733410000000     0.881500000000     0.949910000000     0.0439218  
H605     H      0.700540000000     0.841670000000     0.973000000000     0.0458353  
H606     H      0.790280000000     0.902320000000     0.518620000000     0.0683588  
H607     H      0.750200000000     0.869100000000     0.544960000000     0.0345239  
H608     H      0.701860000000     0.902550000000     0.968750000000     0.0487071  
H609     H      0.696400000000     0.863380000000     0.009280000000     0.048173   
H610     H      0.761450000000     0.631860000000     0.551410000000     0.0767889  
H611     H      0.798960000000     0.637040000000     0.500000000000     0.0595023  
H612     H      0.784390000000     0.594310000000     0.465960000000     0.052307   
H613     H      0.723590000000     0.651400000000     0.548990000000     0.072223   
H614     H      0.705240000000     0.613550000000     0.008670000000     0.0396988  
H615     H      0.781710000000     0.655040000000     0.465620000000     0.0542752  
H616     H      0.746740000000     0.611490000000     0.957330000000     0.0570898  
H617     H      0.757290000000     0.553110000000     0.859950000000     0.0663807  
H618     H      0.797610000000     0.005500000000     0.860640000000     0.0462172  
H619     H      0.782700000000     0.967330000000     0.900700000000     0.0465463  
H620     H      0.720160000000     0.546720000000     0.839820000000     0.0661481  
H621     H      0.702920000000     0.508990000000     0.880190000000     0.0354697  
H622     H      0.786110000000     0.969600000000     0.841070000000     0.0472779  
H623     H      0.746150000000     0.959060000000     0.880900000000     0.0445021  
H624     H      0.734190000000     0.534090000000     0.614750000000     0.0826478  
H625     H      0.790770000000     0.502640000000     0.615740000000     0.0521771  
H626     H      0.785800000000     0.957940000000     0.652420000000     0.044965   
H627     H      0.703450000000     0.516360000000     0.591330000000     0.0858644  
H628     H      0.700900000000     0.971120000000     0.626760000000     0.0330747  
H629     H      0.791780000000     0.966630000000     0.592800000000     0.0490075  
H630     H      0.754510000000     0.940850000000     0.628860000000     0.0487124  
H631     H      0.948320000000     0.767220000000     0.863090000000     0.0670378  
H632     H      0.503780000000     0.798030000000     0.861660000000     0.0474168  
H633     H      0.537050000000     0.774210000000     0.901290000000     0.0431773  
H634     H      0.946020000000     0.731210000000     0.840100000000     0.0669355  
H635     H      0.983120000000     0.704510000000     0.876140000000     0.0319838  
H636     H      0.535500000000     0.779100000000     0.840820000000     0.0478567  
H637     H      0.538870000000     0.737610000000     0.879830000000     0.0429908  
H638     H      0.948610000000     0.728100000000     0.612670000000     0.0690556  
H639     H      0.975720000000     0.786170000000     0.616050000000     0.0532475  
H640     H      0.522740000000     0.784940000000     0.650500000000     0.0460612  
H641     H      0.969320000000     0.698790000000     0.589990000000     0.0699808  
H642     H      0.512750000000     0.698420000000     0.627260000000     0.0368728  
H643     H      0.510940000000     0.791650000000     0.592590000000     0.0627645  
H644     H      0.540240000000     0.754200000000     0.626390000000     0.0600044  
H645     H      0.631540000000     0.943470000000     0.749210000000     0.0686373  
H646     H      0.631020000000     0.490640000000     0.704230000000     0.0628615  
H647     H      0.590440000000     0.526510000000     0.717870000000     0.0709289  
H648     H      0.652620000000     0.953020000000     0.785210000000     0.0651115  
H649     H      0.612940000000     0.992790000000     0.799860000000     0.0358014  
H650     H      0.649150000000     0.527240000000     0.716380000000     0.0723863  
H651     H      0.609360000000     0.538030000000     0.754300000000     0.0568748  
H652     H      0.859990000000     0.495590000000     0.793230000000     0.0632692  
H653     H      0.860440000000     0.547490000000     0.755790000000     0.0476885  
H654     H      0.901830000000     0.540650000000     0.716010000000     0.0470842  
H655     H      0.840420000000     0.961190000000     0.777940000000     0.0686185  
H656     H      0.879980000000     0.955900000000     0.736070000000     0.043416   
H657     H      0.841910000000     0.543100000000     0.717460000000     0.0489261  
H658     H      0.882640000000     0.006110000000     0.699920000000     0.0529207  
H659     H      0.979170000000     0.859430000000     0.692480000000     0.0657597  
H660     H      0.536060000000     0.865210000000     0.723120000000     0.0521084  
H661     H      0.533780000000     0.901450000000     0.769000000000     0.0609066  
H662     H      0.948120000000     0.841940000000     0.715380000000     0.0687391  
H663     H      0.946300000000     0.885230000000     0.751660000000     0.0423522  
H664     H      0.539170000000     0.844330000000     0.760380000000     0.0516455  
H665     H      0.500330000000     0.880280000000     0.784970000000     0.0561337  
H666     H      0.007030000000     0.631790000000     0.708380000000     0.0825735  
H667     H      0.953920000000     0.629380000000     0.746140000000     0.0548307  
H668     H      0.962910000000     0.592310000000     0.790120000000     0.0457954  
H669     H      0.539880000000     0.653130000000     0.724590000000     0.0739772  
H670     H      0.546500000000     0.614790000000     0.766620000000     0.0315272  
H671     H      0.956900000000     0.651280000000     0.782790000000     0.0477168  
H672     H      0.496910000000     0.614540000000     0.803270000000     0.0478406  
N1       N      0.336510000000     0.252790000000     0.005520000000    -0.173595   
N2       N      0.401320000000     0.246320000000     0.992700000000    -0.162703   
N3       N      0.086100000000     0.244080000000     0.001130000000    -0.174349   
N4       N      0.152250000000     0.239210000000     0.007480000000    -0.162891   
N5       N      0.240400000000     0.340600000000     0.504720000000    -0.17835    
N6       N      0.247320000000     0.405340000000     0.491510000000    -0.165049   
N7       N      0.249150000000     0.090210000000     0.502540000000    -0.175054   
N8       N      0.253880000000     0.156330000000     0.508430000000    -0.160609   
N9       N      0.246890000000     0.503540000000     0.403640000000    -0.177743   
N10      N      0.253480000000     0.008660000000     0.337670000000    -0.165606   
N11      N      0.241170000000     0.981970000000     0.154150000000    -0.178697   
N12      N      0.249160000000     0.993970000000     0.089280000000    -0.161537   
N13      N      0.495320000000     0.245200000000     0.402840000000    -0.178782   
N14      N      0.489900000000     0.256590000000     0.337620000000    -0.165017   
N15      N      0.500570000000     0.239290000000     0.153060000000    -0.178886   
N16      N      0.988180000000     0.246230000000     0.088400000000    -0.161247   
N17      N      0.088180000000     0.492930000000     0.256150000000    -0.175142   
N18      N      0.154000000000     0.487980000000     0.248490000000    -0.162525   
N19      N      0.403940000000     0.998770000000     0.244840000000    -0.176747   
N20      N      0.338050000000     0.503310000000     0.248910000000    -0.164958   
N21      N      0.990740000000     0.405720000000     0.242700000000    -0.176523   
N22      N      0.994820000000     0.339640000000     0.235470000000    -0.166509   
N23      N      0.503960000000     0.089650000000     0.260200000000    -0.177517   
N24      N      0.996540000000     0.155030000000     0.251260000000    -0.163608   
N25      N      0.336510000000     0.252790000000     0.505530000000    -0.175017   
N26      N      0.401320000000     0.246320000000     0.492700000000    -0.160883   
N27      N      0.086100000000     0.244080000000     0.501130000000    -0.176919   
N28      N      0.152250000000     0.239210000000     0.507480000000    -0.163645   
N29      N      0.240400000000     0.340600000000     0.004720000000    -0.176927   
N30      N      0.247320000000     0.405340000000     0.991510000000    -0.166855   
N31      N      0.249150000000     0.090210000000     0.002540000000    -0.174323   
N32      N      0.253880000000     0.156330000000     0.008430000000    -0.159504   
N33      N      0.246890000000     0.503540000000     0.903640000000    -0.177728   
N34      N      0.253480000000     0.008660000000     0.837670000000    -0.165603   
N35      N      0.241170000000     0.981970000000     0.654150000000    -0.178696   
N36      N      0.249160000000     0.993970000000     0.589280000000    -0.161733   
N37      N      0.495320000000     0.245200000000     0.902840000000    -0.178851   
N38      N      0.489900000000     0.256590000000     0.837620000000    -0.165018   
N39      N      0.500570000000     0.239290000000     0.653060000000    -0.178889   
N40      N      0.988180000000     0.246230000000     0.588400000000    -0.16143    
N41      N      0.088180000000     0.492930000000     0.756150000000    -0.175155   
N42      N      0.154000000000     0.487980000000     0.748490000000    -0.162522   
N43      N      0.403940000000     0.998770000000     0.744840000000    -0.176775   
N44      N      0.338050000000     0.503310000000     0.748910000000    -0.164961   
N45      N      0.990740000000     0.405720000000     0.742700000000    -0.176541   
N46      N      0.994820000000     0.339640000000     0.735470000000    -0.166519   
N47      N      0.503960000000     0.089650000000     0.760200000000    -0.17748    
N48      N      0.996540000000     0.155030000000     0.751260000000    -0.163614   
N49      N      0.336510000000     0.752790000000     0.005520000000    -0.173597   
N50      N      0.401320000000     0.746320000000     0.992700000000    -0.162715   
N51      N      0.086100000000     0.744080000000     0.001130000000    -0.17434    
N52      N      0.152250000000     0.739220000000     0.007480000000    -0.162894   
N53      N      0.240400000000     0.840600000000     0.504720000000    -0.178351   
N54      N      0.247320000000     0.905340000000     0.491510000000    -0.165052   
N55      N      0.249150000000     0.590210000000     0.502540000000    -0.175087   
N56      N      0.253880000000     0.656340000000     0.508430000000    -0.160691   
N57      N      0.246890000000     0.003550000000     0.403640000000    -0.177617   
N58      N      0.253480000000     0.508670000000     0.337670000000    -0.165759   
N59      N      0.241170000000     0.481970000000     0.154150000000    -0.178768   
N60      N      0.249160000000     0.493970000000     0.089280000000    -0.161388   
N61      N      0.495320000000     0.745200000000     0.402840000000    -0.17884    
N62      N      0.489900000000     0.756590000000     0.337620000000    -0.165      
N63      N      0.500570000000     0.739290000000     0.153060000000    -0.178887   
N64      N      0.988180000000     0.746230000000     0.088400000000    -0.161249   
N65      N      0.088180000000     0.992930000000     0.256150000000    -0.175283   
N66      N      0.154000000000     0.987980000000     0.248490000000    -0.162646   
N67      N      0.403940000000     0.498770000000     0.244840000000    -0.176325   
N68      N      0.338050000000     0.003310000000     0.248910000000    -0.164808   
N69      N      0.990740000000     0.905720000000     0.242700000000    -0.176522   
N70      N      0.994820000000     0.839640000000     0.235470000000    -0.166438   
N71      N      0.503960000000     0.589650000000     0.260200000000    -0.177531   
N72      N      0.996540000000     0.655030000000     0.251260000000    -0.163607   
N73      N      0.336510000000     0.752790000000     0.505530000000    -0.175025   
N74      N      0.401320000000     0.746320000000     0.492700000000    -0.160885   
N75      N      0.086100000000     0.744080000000     0.501130000000    -0.176923   
N76      N      0.152250000000     0.739220000000     0.507480000000    -0.163651   
N77      N      0.240400000000     0.840600000000     0.004720000000    -0.176924   
N78      N      0.247320000000     0.905340000000     0.991510000000    -0.166864   
N79      N      0.249150000000     0.590210000000     0.002540000000    -0.174351   
N80      N      0.253880000000     0.656340000000     0.008430000000    -0.15958    
N81      N      0.246890000000     0.003550000000     0.903640000000    -0.177598   
N82      N      0.253480000000     0.508670000000     0.837670000000    -0.165762   
N83      N      0.241170000000     0.481970000000     0.654150000000    -0.17877    
N84      N      0.249160000000     0.493970000000     0.589280000000    -0.161576   
N85      N      0.495320000000     0.745200000000     0.902840000000    -0.17891    
N86      N      0.489900000000     0.756590000000     0.837620000000    -0.165001   
N87      N      0.500570000000     0.739290000000     0.653060000000    -0.17889    
N88      N      0.988180000000     0.746230000000     0.588400000000    -0.161433   
N89      N      0.088180000000     0.992930000000     0.756150000000    -0.175301   
N90      N      0.154000000000     0.987980000000     0.748490000000    -0.162649   
N91      N      0.403940000000     0.498770000000     0.744840000000    -0.176338   
N92      N      0.338050000000     0.003310000000     0.748910000000    -0.164806   
N93      N      0.990740000000     0.905720000000     0.742700000000    -0.17654    
N94      N      0.994820000000     0.839640000000     0.735470000000    -0.166447   
N95      N      0.503960000000     0.589650000000     0.760200000000    -0.177494   
N96      N      0.996540000000     0.655030000000     0.751260000000    -0.163613   
N97      N      0.836510000000     0.252790000000     0.005520000000    -0.173591   
N98      N      0.901320000000     0.246320000000     0.992700000000    -0.162731   
N99      N      0.586100000000     0.244080000000     0.001130000000    -0.174785   
N100     N      0.652250000000     0.239210000000     0.007480000000    -0.162916   
N101     N      0.740400000000     0.340600000000     0.504720000000    -0.178353   
N102     N      0.747320000000     0.405340000000     0.491510000000    -0.165083   
N103     N      0.749140000000     0.090210000000     0.502540000000    -0.175151   
N104     N      0.753880000000     0.156330000000     0.508430000000    -0.160603   
N105     N      0.746890000000     0.503540000000     0.403640000000    -0.177771   
N106     N      0.753480000000     0.008660000000     0.337670000000    -0.165628   
N107     N      0.741170000000     0.981970000000     0.154150000000    -0.178703   
N108     N      0.749170000000     0.993970000000     0.089280000000    -0.161545   
N109     N      0.995320000000     0.245200000000     0.402840000000    -0.18154    
N110     N      0.989900000000     0.256590000000     0.337620000000    -0.16677    
N111     N      0.000570000000     0.239290000000     0.153060000000    -0.171553   
N112     N      0.488180000000     0.246230000000     0.088400000000    -0.161704   
N113     N      0.588180000000     0.492930000000     0.256150000000    -0.175592   
N114     N      0.654000000000     0.487980000000     0.248490000000    -0.162545   
N115     N      0.903940000000     0.998770000000     0.244840000000    -0.1767     
N116     N      0.838050000000     0.503310000000     0.248910000000    -0.164967   
N117     N      0.490740000000     0.405720000000     0.242700000000    -0.173734   
N118     N      0.494820000000     0.339640000000     0.235470000000    -0.164622   
N119     N      0.003960000000     0.089650000000     0.260200000000    -0.174998   
N120     N      0.496540000000     0.155030000000     0.251260000000    -0.16144    
N121     N      0.836510000000     0.252790000000     0.505530000000    -0.175015   
N122     N      0.901320000000     0.246320000000     0.492700000000    -0.160908   
N123     N      0.586100000000     0.244080000000     0.501130000000    -0.177374   
N124     N      0.652250000000     0.239210000000     0.507480000000    -0.163675   
N125     N      0.740400000000     0.340600000000     0.004720000000    -0.176925   
N126     N      0.747320000000     0.405340000000     0.991510000000    -0.166894   
N127     N      0.749140000000     0.090210000000     0.002540000000    -0.174417   
N128     N      0.753880000000     0.156330000000     0.008430000000    -0.159495   
N129     N      0.746890000000     0.503540000000     0.903640000000    -0.177756   
N130     N      0.753480000000     0.008660000000     0.837670000000    -0.165626   
N131     N      0.741170000000     0.981970000000     0.654150000000    -0.178703   
N132     N      0.749170000000     0.993970000000     0.589280000000    -0.161742   
N133     N      0.995320000000     0.245200000000     0.902840000000    -0.181609   
N134     N      0.989900000000     0.256590000000     0.837620000000    -0.16677    
N135     N      0.000570000000     0.239290000000     0.653060000000    -0.171536   
N136     N      0.488180000000     0.246230000000     0.588400000000    -0.161889   
N137     N      0.588180000000     0.492930000000     0.756150000000    -0.175606   
N138     N      0.654000000000     0.487980000000     0.748490000000    -0.162542   
N139     N      0.903940000000     0.998770000000     0.744840000000    -0.176728   
N140     N      0.838050000000     0.503310000000     0.748910000000    -0.16497    
N141     N      0.490740000000     0.405720000000     0.742700000000    -0.173748   
N142     N      0.494820000000     0.339640000000     0.735470000000    -0.164629   
N143     N      0.003960000000     0.089650000000     0.760200000000    -0.174957   
N144     N      0.496540000000     0.155030000000     0.751260000000    -0.161443   
N145     N      0.836510000000     0.752790000000     0.005520000000    -0.173592   
N146     N      0.901320000000     0.746320000000     0.992700000000    -0.162743   
N147     N      0.586100000000     0.744080000000     0.001130000000    -0.174776   
N148     N      0.652250000000     0.739220000000     0.007480000000    -0.162918   
N149     N      0.740400000000     0.840600000000     0.504720000000    -0.178355   
N150     N      0.747320000000     0.905340000000     0.491510000000    -0.165086   
N151     N      0.749140000000     0.590210000000     0.502540000000    -0.175184   
N152     N      0.753880000000     0.656340000000     0.508430000000    -0.160686   
N153     N      0.746890000000     0.003550000000     0.403640000000    -0.177645   
N154     N      0.753480000000     0.508670000000     0.337670000000    -0.165781   
N155     N      0.741170000000     0.481970000000     0.154150000000    -0.178773   
N156     N      0.749170000000     0.493970000000     0.089280000000    -0.161399   
N157     N      0.995320000000     0.745200000000     0.402840000000    -0.181597   
N158     N      0.989900000000     0.756590000000     0.337620000000    -0.16675    
N159     N      0.000570000000     0.739290000000     0.153060000000    -0.171557   
N160     N      0.488180000000     0.746230000000     0.088400000000    -0.161706   
N161     N      0.588180000000     0.992930000000     0.256150000000    -0.175729   
N162     N      0.654000000000     0.987980000000     0.248490000000    -0.162664   
N163     N      0.903940000000     0.498770000000     0.244840000000    -0.176284   
N164     N      0.838050000000     0.003310000000     0.248910000000    -0.164818   
N165     N      0.490740000000     0.905720000000     0.242700000000    -0.173741   
N166     N      0.494820000000     0.839640000000     0.235470000000    -0.164553   
N167     N      0.003960000000     0.589650000000     0.260200000000    -0.175009   
N168     N      0.496540000000     0.655030000000     0.251260000000    -0.161436   
N169     N      0.836510000000     0.752790000000     0.505530000000    -0.175023   
N170     N      0.901320000000     0.746320000000     0.492700000000    -0.160911   
N171     N      0.586100000000     0.744080000000     0.501130000000    -0.177378   
N172     N      0.652250000000     0.739220000000     0.507480000000    -0.163681   
N173     N      0.740400000000     0.840600000000     0.004720000000    -0.176921   
N174     N      0.747320000000     0.905340000000     0.991510000000    -0.166903   
N175     N      0.749140000000     0.590210000000     0.002540000000    -0.174445   
N176     N      0.753880000000     0.656340000000     0.008430000000    -0.15957    
N177     N      0.746890000000     0.003550000000     0.903640000000    -0.177627   
N178     N      0.753480000000     0.508670000000     0.837670000000    -0.165784   
N179     N      0.741170000000     0.481970000000     0.654150000000    -0.178775   
N180     N      0.749170000000     0.493970000000     0.589280000000    -0.161588   
N181     N      0.995320000000     0.745200000000     0.902840000000    -0.181666   
N182     N      0.989900000000     0.756590000000     0.837620000000    -0.16675    
N183     N      0.000570000000     0.739290000000     0.653060000000    -0.17154    
N184     N      0.488180000000     0.746230000000     0.588400000000    -0.161891   
N185     N      0.588180000000     0.992930000000     0.756150000000    -0.175748   
N186     N      0.654000000000     0.987980000000     0.748490000000    -0.162667   
N187     N      0.903940000000     0.498770000000     0.744840000000    -0.176297   
N188     N      0.838050000000     0.003310000000     0.748910000000    -0.164816   
N189     N      0.490740000000     0.905720000000     0.742700000000    -0.173755   
N190     N      0.494820000000     0.839640000000     0.735470000000    -0.16456    
N191     N      0.003960000000     0.589650000000     0.760200000000    -0.174968   
N192     N      0.496540000000     0.655030000000     0.751260000000    -0.16144    
Ni1      Ni     0.494290000000     0.994880000000     0.279340000000     1.01669    
Ni2      Ni     0.997670000000     0.000460000000     0.223130000000     1.01117    
Ni3      Ni     0.023190000000     0.248240000000     0.246740000000     1.02169    
Ni4      Ni     0.467040000000     0.246520000000     0.243740000000     1.0041     
Ni5      Ni     0.243520000000     0.023100000000     0.241880000000     1.01266    
Ni6      Ni     0.248810000000     0.467520000000     0.250310000000     1.00987    
Ni7      Ni     0.276200000000     0.497280000000     0.495990000000     1.00977    
Ni8      Ni     0.219950000000     0.498470000000     0.996710000000     1.01436    
Ni9      Ni     0.993150000000     0.217390000000     0.995760000000     1.01092    
Ni10     Ni     0.994480000000     0.273730000000     0.495380000000     1.00149    
Ni11     Ni     0.244220000000     0.247920000000     0.478140000000     0.989567   
Ni12     Ni     0.244450000000     0.248760000000     0.034430000000     1.03039    
Ni13     Ni     0.494290000000     0.994880000000     0.779340000000     1.01658    
Ni14     Ni     0.997670000000     0.000460000000     0.723130000000     1.01104    
Ni15     Ni     0.023190000000     0.248240000000     0.746740000000     1.02171    
Ni16     Ni     0.467040000000     0.246520000000     0.743740000000     1.00412    
Ni17     Ni     0.243520000000     0.023100000000     0.741880000000     1.01268    
Ni18     Ni     0.248810000000     0.467520000000     0.750310000000     1.00988    
Ni19     Ni     0.276200000000     0.497280000000     0.995990000000     1.00786    
Ni20     Ni     0.219950000000     0.498470000000     0.496710000000     1.01909    
Ni21     Ni     0.993150000000     0.217390000000     0.495760000000     1.01347    
Ni22     Ni     0.994480000000     0.273730000000     0.995380000000     0.998874   
Ni23     Ni     0.244220000000     0.247920000000     0.978140000000     0.988048   
Ni24     Ni     0.244450000000     0.248760000000     0.534430000000     1.02728    
Ni25     Ni     0.494290000000     0.494880000000     0.279340000000     1.01743    
Ni26     Ni     0.997670000000     0.500460000000     0.223130000000     1.00968    
Ni27     Ni     0.023190000000     0.748240000000     0.246740000000     1.0217     
Ni28     Ni     0.467040000000     0.746520000000     0.243740000000     1.00414    
Ni29     Ni     0.243520000000     0.523100000000     0.241880000000     1.01237    
Ni30     Ni     0.248810000000     0.967520000000     0.250310000000     1.00959    
Ni31     Ni     0.276200000000     0.997280000000     0.495990000000     1.00957    
Ni32     Ni     0.219950000000     0.998460000000     0.996710000000     1.01374    
Ni33     Ni     0.993150000000     0.717390000000     0.995760000000     1.01093    
Ni34     Ni     0.994480000000     0.773730000000     0.495380000000     1.00152    
Ni35     Ni     0.244220000000     0.747920000000     0.478140000000     0.98962    
Ni36     Ni     0.244450000000     0.748760000000     0.034430000000     1.03041    
Ni37     Ni     0.494290000000     0.494880000000     0.779340000000     1.01735    
Ni38     Ni     0.997670000000     0.500460000000     0.723130000000     1.0095     
Ni39     Ni     0.023190000000     0.748240000000     0.746740000000     1.02171    
Ni40     Ni     0.467040000000     0.746520000000     0.743740000000     1.00416    
Ni41     Ni     0.243520000000     0.523100000000     0.741880000000     1.01238    
Ni42     Ni     0.248810000000     0.967520000000     0.750310000000     1.00959    
Ni43     Ni     0.276200000000     0.997280000000     0.995990000000     1.00765    
Ni44     Ni     0.219950000000     0.998460000000     0.496710000000     1.01847    
Ni45     Ni     0.993150000000     0.717390000000     0.495760000000     1.01349    
Ni46     Ni     0.994480000000     0.773730000000     0.995380000000     0.9989     
Ni47     Ni     0.244220000000     0.747920000000     0.978140000000     0.988094   
Ni48     Ni     0.244450000000     0.748760000000     0.534430000000     1.02728    
Ni49     Ni     0.994290000000     0.994880000000     0.279340000000     1.01211    
Ni50     Ni     0.497670000000     0.000460000000     0.223130000000     1.02256    
Ni51     Ni     0.523200000000     0.248240000000     0.246740000000     1.01854    
Ni52     Ni     0.967040000000     0.246520000000     0.243740000000     0.996366   
Ni53     Ni     0.743520000000     0.023100000000     0.241880000000     1.01265    
Ni54     Ni     0.748810000000     0.467520000000     0.250310000000     1.00989    
Ni55     Ni     0.776200000000     0.497280000000     0.495990000000     1.00976    
Ni56     Ni     0.719950000000     0.498470000000     0.996710000000     1.014      
Ni57     Ni     0.493150000000     0.217390000000     0.995760000000     1.01679    
Ni58     Ni     0.494480000000     0.273730000000     0.495380000000     1.00777    
Ni59     Ni     0.744220000000     0.247920000000     0.478140000000     0.989559   
Ni60     Ni     0.744450000000     0.248760000000     0.034430000000     1.03023    
Ni61     Ni     0.994290000000     0.994880000000     0.779340000000     1.01201    
Ni62     Ni     0.497670000000     0.000460000000     0.723130000000     1.02245    
Ni63     Ni     0.523200000000     0.248240000000     0.746740000000     1.01854    
Ni64     Ni     0.967040000000     0.246520000000     0.743740000000     0.996369   
Ni65     Ni     0.743520000000     0.023100000000     0.741880000000     1.01268    
Ni66     Ni     0.748810000000     0.467520000000     0.750310000000     1.0099     
Ni67     Ni     0.776200000000     0.497280000000     0.995990000000     1.00785    
Ni68     Ni     0.719950000000     0.498470000000     0.496710000000     1.01875    
Ni69     Ni     0.493150000000     0.217390000000     0.495760000000     1.01936    
Ni70     Ni     0.494480000000     0.273730000000     0.995380000000     1.00514    
Ni71     Ni     0.744220000000     0.247920000000     0.978140000000     0.988035   
Ni72     Ni     0.744450000000     0.248760000000     0.534430000000     1.02711    
Ni73     Ni     0.994290000000     0.494880000000     0.279340000000     1.01282    
Ni74     Ni     0.497670000000     0.500460000000     0.223130000000     1.02109    
Ni75     Ni     0.523200000000     0.748240000000     0.246740000000     1.01854    
Ni76     Ni     0.967040000000     0.746520000000     0.243740000000     0.99641    
Ni77     Ni     0.743520000000     0.523100000000     0.241880000000     1.01237    
Ni78     Ni     0.748810000000     0.967520000000     0.250310000000     1.00962    
Ni79     Ni     0.776200000000     0.997280000000     0.495990000000     1.00957    
Ni80     Ni     0.719950000000     0.998460000000     0.996710000000     1.01339    
Ni81     Ni     0.493150000000     0.717390000000     0.995760000000     1.0168     
Ni82     Ni     0.494480000000     0.773730000000     0.495380000000     1.0078     
Ni83     Ni     0.744220000000     0.747920000000     0.478140000000     0.989612   
Ni84     Ni     0.744450000000     0.748760000000     0.034430000000     1.03025    
Ni85     Ni     0.994290000000     0.494880000000     0.779340000000     1.01274    
Ni86     Ni     0.497670000000     0.500460000000     0.723130000000     1.02094    
Ni87     Ni     0.523200000000     0.748240000000     0.746740000000     1.01855    
Ni88     Ni     0.967040000000     0.746520000000     0.743740000000     0.996413   
Ni89     Ni     0.743520000000     0.523100000000     0.741880000000     1.01238    
Ni90     Ni     0.748810000000     0.967520000000     0.750310000000     1.00962    
Ni91     Ni     0.776200000000     0.997280000000     0.995990000000     1.00765    
Ni92     Ni     0.719950000000     0.998460000000     0.496710000000     1.01814    
Ni93     Ni     0.493150000000     0.717390000000     0.495760000000     1.01938    
Ni94     Ni     0.494480000000     0.773730000000     0.995380000000     1.00516    
Ni95     Ni     0.744220000000     0.747920000000     0.978140000000     0.988081   
Ni96     Ni     0.744450000000     0.748760000000     0.534430000000     1.02712    
O1       O      0.449290000000     0.495920000000     0.274350000000    -0.4281     
O2       O      0.039630000000     0.993020000000     0.280430000000    -0.423008   
O3       O      0.495360000000     0.040470000000     0.281580000000    -0.442733   
O4       O      0.993520000000     0.450110000000     0.273280000000    -0.434422   
O5       O      0.492400000000     0.455210000000     0.220590000000    -0.423618   
O6       O      0.002770000000     0.045040000000     0.229420000000    -0.423521   
O7       O      0.042420000000     0.495730000000     0.227650000000    -0.434744   
O8       O      0.452650000000     0.005270000000     0.222410000000    -0.439763   
O9       O      0.023860000000     0.246230000000     0.201320000000    -0.440658   
O10      O      0.018870000000     0.251260000000     0.291990000000    -0.442229   
O11      O      0.021910000000     0.202820000000     0.248540000000    -0.439077   
O12      O      0.020650000000     0.293090000000     0.244400000000    -0.446397   
O13      O      0.468600000000     0.291810000000     0.237120000000    -0.439192   
O14      O      0.469340000000     0.201760000000     0.250520000000    -0.43675    
O15      O      0.466330000000     0.252220000000     0.288890000000    -0.444399   
O16      O      0.471630000000     0.239920000000     0.198830000000    -0.428102   
O17      O      0.289020000000     0.025040000000     0.240500000000    -0.442985   
O18      O      0.198850000000     0.017430000000     0.243360000000    -0.438084   
O19      O      0.244550000000     0.027690000000     0.287440000000    -0.442687   
O20      O      0.241990000000     0.014810000000     0.197200000000    -0.428667   
O21      O      0.247310000000     0.462850000000     0.204700000000    -0.441221   
O22      O      0.251210000000     0.475880000000     0.294750000000    -0.44913    
O23      O      0.203330000000     0.465770000000     0.252950000000    -0.440882   
O24      O      0.293390000000     0.473130000000     0.248560000000    -0.448857   
O25      O      0.273440000000     0.997990000000     0.450530000000    -0.447592   
O26      O      0.275250000000     0.495720000000     0.041590000000    -0.43948    
O27      O      0.273720000000     0.452270000000     0.495470000000    -0.449703   
O28      O      0.274780000000     0.042850000000     0.996630000000    -0.442853   
O29      O      0.222390000000     0.043300000000     0.501830000000    -0.425186   
O30      O      0.221280000000     0.453110000000     0.991550000000    -0.4431     
O31      O      0.222640000000     0.994260000000     0.041940000000    -0.43715    
O32      O      0.221130000000     0.503660000000     0.451470000000    -0.431242   
O33      O      0.492690000000     0.219560000000     0.041240000000    -0.440557   
O34      O      0.992360000000     0.219020000000     0.450250000000    -0.433931   
O35      O      0.038670000000     0.218650000000     0.995240000000    -0.437476   
O36      O      0.448230000000     0.219970000000     0.496420000000    -0.441048   
O37      O      0.449060000000     0.272370000000     0.991040000000    -0.438904   
O38      O      0.039370000000     0.271170000000     0.499910000000    -0.427828   
O39      O      0.498740000000     0.271390000000     0.450060000000    -0.445134   
O40      O      0.990860000000     0.272240000000     0.040750000000    -0.436608   
O41      O      0.199480000000     0.240090000000     0.480550000000    -0.441078   
O42      O      0.288990000000     0.255540000000     0.479830000000    -0.438245   
O43      O      0.252140000000     0.203180000000     0.480880000000    -0.438823   
O44      O      0.236690000000     0.292790000000     0.479550000000    -0.441966   
O45      O      0.245090000000     0.293940000000     0.031780000000    -0.43232    
O46      O      0.244080000000     0.203510000000     0.033130000000    -0.440153   
O47      O      0.289650000000     0.248110000000     0.032210000000    -0.423092   
O48      O      0.199220000000     0.249110000000     0.032640000000    -0.445989   
O49      O      0.449290000000     0.495920000000     0.774350000000    -0.428121   
O50      O      0.039630000000     0.993020000000     0.780430000000    -0.423032   
O51      O      0.495360000000     0.040470000000     0.781580000000    -0.442694   
O52      O      0.993520000000     0.450110000000     0.773280000000    -0.434439   
O53      O      0.492400000000     0.455210000000     0.720590000000    -0.423657   
O54      O      0.002770000000     0.045040000000     0.729410000000    -0.42337    
O55      O      0.042420000000     0.495730000000     0.727650000000    -0.434767   
O56      O      0.452650000000     0.005270000000     0.722410000000    -0.439809   
O57      O      0.023860000000     0.246230000000     0.701320000000    -0.440653   
O58      O      0.018870000000     0.251260000000     0.791990000000    -0.442229   
O59      O      0.021910000000     0.202820000000     0.748540000000    -0.439073   
O60      O      0.020650000000     0.293090000000     0.744400000000    -0.446393   
O61      O      0.468600000000     0.291810000000     0.737120000000    -0.439197   
O62      O      0.469340000000     0.201760000000     0.750520000000    -0.43675    
O63      O      0.466330000000     0.252220000000     0.788890000000    -0.4444     
O64      O      0.471630000000     0.239920000000     0.698830000000    -0.428106   
O65      O      0.289020000000     0.025040000000     0.740500000000    -0.442993   
O66      O      0.198850000000     0.017430000000     0.743360000000    -0.438073   
O67      O      0.244550000000     0.027690000000     0.787440000000    -0.442692   
O68      O      0.241990000000     0.014810000000     0.697200000000    -0.428658   
O69      O      0.247310000000     0.462850000000     0.704700000000    -0.441229   
O70      O      0.251210000000     0.475880000000     0.794750000000    -0.449134   
O71      O      0.203330000000     0.465770000000     0.752950000000    -0.440886   
O72      O      0.293390000000     0.473130000000     0.748560000000    -0.44886    
O73      O      0.273440000000     0.997990000000     0.950530000000    -0.447324   
O74      O      0.275250000000     0.495720000000     0.541590000000    -0.441336   
O75      O      0.273720000000     0.452270000000     0.995470000000    -0.450283   
O76      O      0.274780000000     0.042850000000     0.496630000000    -0.44057    
O77      O      0.222390000000     0.043300000000     0.001830000000    -0.423617   
O78      O      0.221280000000     0.453110000000     0.491550000000    -0.443199   
O79      O      0.222640000000     0.994260000000     0.541940000000    -0.439231   
O80      O      0.221130000000     0.503660000000     0.951470000000    -0.430808   
O81      O      0.492690000000     0.219560000000     0.541240000000    -0.442572   
O82      O      0.992360000000     0.219020000000     0.950250000000    -0.43349    
O83      O      0.038670000000     0.218650000000     0.495230000000    -0.437704   
O84      O      0.448230000000     0.219970000000     0.996420000000    -0.441574   
O85      O      0.449060000000     0.272370000000     0.491040000000    -0.438689   
O86      O      0.039370000000     0.271170000000     0.999910000000    -0.427943   
O87      O      0.498740000000     0.271390000000     0.950060000000    -0.444696   
O88      O      0.990860000000     0.272240000000     0.540750000000    -0.438606   
O89      O      0.199480000000     0.240090000000     0.980550000000    -0.443341   
O90      O      0.288990000000     0.255540000000     0.979830000000    -0.440451   
O91      O      0.252140000000     0.203180000000     0.980880000000    -0.441052   
O92      O      0.236690000000     0.292790000000     0.979550000000    -0.444178   
O93      O      0.245090000000     0.293940000000     0.531780000000    -0.431486   
O94      O      0.244080000000     0.203510000000     0.533130000000    -0.439326   
O95      O      0.289650000000     0.248110000000     0.532210000000    -0.422221   
O96      O      0.199220000000     0.249110000000     0.532640000000    -0.445177   
O97      O      0.449290000000     0.995920000000     0.274350000000    -0.428448   
O98      O      0.039630000000     0.493020000000     0.280430000000    -0.422987   
O99      O      0.495360000000     0.540470000000     0.281580000000    -0.443019   
O100     O      0.993520000000     0.950110000000     0.273280000000    -0.434328   
O101     O      0.492400000000     0.955220000000     0.220590000000    -0.423991   
O102     O      0.002770000000     0.545040000000     0.229420000000    -0.423381   
O103     O      0.042420000000     0.995730000000     0.227650000000    -0.43516    
O104     O      0.452650000000     0.505270000000     0.222410000000    -0.43953    
O105     O      0.023860000000     0.746230000000     0.201320000000    -0.440689   
O106     O      0.018870000000     0.751260000000     0.291990000000    -0.442233   
O107     O      0.021910000000     0.702820000000     0.248540000000    -0.439077   
O108     O      0.020650000000     0.793090000000     0.244400000000    -0.446484   
O109     O      0.468600000000     0.791810000000     0.237120000000    -0.439274   
O110     O      0.469340000000     0.701760000000     0.250520000000    -0.436763   
O111     O      0.466330000000     0.752220000000     0.288890000000    -0.444405   
O112     O      0.471630000000     0.739930000000     0.198830000000    -0.42814    
O113     O      0.289020000000     0.525040000000     0.240500000000    -0.442902   
O114     O      0.198850000000     0.517420000000     0.243360000000    -0.438645   
O115     O      0.244550000000     0.527690000000     0.287440000000    -0.442596   
O116     O      0.241990000000     0.514810000000     0.197200000000    -0.428982   
O117     O      0.247310000000     0.962850000000     0.204700000000    -0.441134   
O118     O      0.251210000000     0.975880000000     0.294750000000    -0.449424   
O119     O      0.203330000000     0.965770000000     0.252950000000    -0.440837   
O120     O      0.293390000000     0.973130000000     0.248560000000    -0.449156   
O121     O      0.273440000000     0.497990000000     0.450530000000    -0.447281   
O122     O      0.275250000000     0.995720000000     0.041590000000    -0.439506   
O123     O      0.273720000000     0.952270000000     0.495470000000    -0.449687   
O124     O      0.274780000000     0.542850000000     0.996630000000    -0.443165   
O125     O      0.222390000000     0.543300000000     0.501830000000    -0.425597   
O126     O      0.221280000000     0.953110000000     0.991550000000    -0.443171   
O127     O      0.222640000000     0.494260000000     0.041940000000    -0.437141   
O128     O      0.221130000000     0.003660000000     0.451470000000    -0.430988   
O129     O      0.492690000000     0.719560000000     0.041240000000    -0.440564   
O130     O      0.992360000000     0.719030000000     0.450250000000    -0.434121   
O131     O      0.038670000000     0.718650000000     0.995240000000    -0.437492   
O132     O      0.448230000000     0.719970000000     0.496420000000    -0.441061   
O133     O      0.449060000000     0.772370000000     0.991040000000    -0.43891    
O134     O      0.039370000000     0.771170000000     0.499910000000    -0.427839   
O135     O      0.498740000000     0.771390000000     0.450060000000    -0.445202   
O136     O      0.990860000000     0.772240000000     0.040750000000    -0.436607   
O137     O      0.199480000000     0.740090000000     0.480550000000    -0.441091   
O138     O      0.288990000000     0.755530000000     0.479830000000    -0.438293   
O139     O      0.252140000000     0.703180000000     0.480880000000    -0.438847   
O140     O      0.236690000000     0.792790000000     0.479550000000    -0.441983   
O141     O      0.245090000000     0.793940000000     0.031780000000    -0.432328   
O142     O      0.244080000000     0.703510000000     0.033130000000    -0.440186   
O143     O      0.289650000000     0.748110000000     0.032210000000    -0.423107   
O144     O      0.199220000000     0.749110000000     0.032640000000    -0.445998   
O145     O      0.449290000000     0.995920000000     0.774350000000    -0.42848    
O146     O      0.039630000000     0.493020000000     0.780430000000    -0.423011   
O147     O      0.495360000000     0.540470000000     0.781580000000    -0.442989   
O148     O      0.993520000000     0.950110000000     0.773280000000    -0.434344   
O149     O      0.492400000000     0.955220000000     0.720590000000    -0.424041   
O150     O      0.002770000000     0.545040000000     0.729410000000    -0.423227   
O151     O      0.042420000000     0.995730000000     0.727650000000    -0.435196   
O152     O      0.452650000000     0.505270000000     0.722410000000    -0.439567   
O153     O      0.023860000000     0.746230000000     0.701320000000    -0.440684   
O154     O      0.018870000000     0.751260000000     0.791990000000    -0.442233   
O155     O      0.021910000000     0.702820000000     0.748540000000    -0.439073   
O156     O      0.020650000000     0.793090000000     0.744400000000    -0.446481   
O157     O      0.468600000000     0.791810000000     0.737120000000    -0.439279   
O158     O      0.469340000000     0.701760000000     0.750520000000    -0.436762   
O159     O      0.466330000000     0.752220000000     0.788890000000    -0.444406   
O160     O      0.471630000000     0.739930000000     0.698830000000    -0.428143   
O161     O      0.289020000000     0.525040000000     0.740500000000    -0.442907   
O162     O      0.198850000000     0.517420000000     0.743360000000    -0.438643   
O163     O      0.244550000000     0.527690000000     0.787440000000    -0.442598   
O164     O      0.241990000000     0.514810000000     0.697200000000    -0.428985   
O165     O      0.247310000000     0.962850000000     0.704700000000    -0.441139   
O166     O      0.251210000000     0.975880000000     0.794750000000    -0.449437   
O167     O      0.203330000000     0.965770000000     0.752950000000    -0.440838   
O168     O      0.293390000000     0.973130000000     0.748560000000    -0.44917    
O169     O      0.273440000000     0.497990000000     0.950530000000    -0.447005   
O170     O      0.275250000000     0.995720000000     0.541590000000    -0.441369   
O171     O      0.273720000000     0.952270000000     0.995470000000    -0.450267   
O172     O      0.274780000000     0.542850000000     0.496630000000    -0.440852   
O173     O      0.222390000000     0.543300000000     0.001830000000    -0.424021   
O174     O      0.221280000000     0.953110000000     0.491550000000    -0.443269   
O175     O      0.222640000000     0.494260000000     0.541940000000    -0.439214   
O176     O      0.221130000000     0.003660000000     0.951470000000    -0.430546   
O177     O      0.492690000000     0.719560000000     0.541240000000    -0.442589   
O178     O      0.992360000000     0.719030000000     0.950250000000    -0.433679   
O179     O      0.038670000000     0.718650000000     0.495230000000    -0.437721   
O180     O      0.448230000000     0.719970000000     0.996420000000    -0.44159    
O181     O      0.449060000000     0.772370000000     0.491040000000    -0.438694   
O182     O      0.039370000000     0.771170000000     0.999910000000    -0.427954   
O183     O      0.498740000000     0.771390000000     0.950060000000    -0.444763   
O184     O      0.990860000000     0.772240000000     0.540750000000    -0.438614   
O185     O      0.199480000000     0.740090000000     0.980550000000    -0.443366   
O186     O      0.288990000000     0.755530000000     0.979830000000    -0.44051    
O187     O      0.252140000000     0.703180000000     0.980880000000    -0.441088   
O188     O      0.236690000000     0.792790000000     0.979550000000    -0.444204   
O189     O      0.245090000000     0.793940000000     0.531780000000    -0.43149    
O190     O      0.244080000000     0.703510000000     0.533130000000    -0.439355   
O191     O      0.289650000000     0.748110000000     0.532210000000    -0.422232   
O192     O      0.199220000000     0.749110000000     0.532640000000    -0.445181   
O193     O      0.949290000000     0.495920000000     0.274350000000    -0.427374   
O194     O      0.539630000000     0.993020000000     0.280430000000    -0.427397   
O195     O      0.995360000000     0.040470000000     0.281580000000    -0.447983   
O196     O      0.493530000000     0.450110000000     0.273280000000    -0.433094   
O197     O      0.992400000000     0.455210000000     0.220590000000    -0.423316   
O198     O      0.502770000000     0.045040000000     0.229420000000    -0.427242   
O199     O      0.542420000000     0.495730000000     0.227650000000    -0.439695   
O200     O      0.952650000000     0.005270000000     0.222410000000    -0.438756   
O201     O      0.523860000000     0.246230000000     0.201320000000    -0.447123   
O202     O      0.518870000000     0.251260000000     0.291990000000    -0.447797   
O203     O      0.521910000000     0.202820000000     0.248540000000    -0.44466    
O204     O      0.520650000000     0.293090000000     0.244400000000    -0.451742   
O205     O      0.968600000000     0.291810000000     0.237120000000    -0.437302   
O206     O      0.969340000000     0.201760000000     0.250520000000    -0.434669   
O207     O      0.966330000000     0.252220000000     0.288890000000    -0.442377   
O208     O      0.971630000000     0.239920000000     0.198830000000    -0.424806   
O209     O      0.789020000000     0.025040000000     0.240500000000    -0.442997   
O210     O      0.698850000000     0.017430000000     0.243360000000    -0.438097   
O211     O      0.744550000000     0.027690000000     0.287440000000    -0.4427     
O212     O      0.741980000000     0.014810000000     0.197200000000    -0.42864    
O213     O      0.747310000000     0.462850000000     0.204700000000    -0.441231   
O214     O      0.751210000000     0.475880000000     0.294750000000    -0.449143   
O215     O      0.703330000000     0.465770000000     0.252950000000    -0.440906   
O216     O      0.793390000000     0.473130000000     0.248560000000    -0.448863   
O217     O      0.773440000000     0.997990000000     0.450530000000    -0.447664   
O218     O      0.775250000000     0.495720000000     0.041590000000    -0.439649   
O219     O      0.773720000000     0.452270000000     0.495470000000    -0.449784   
O220     O      0.774770000000     0.042850000000     0.996630000000    -0.443118   
O221     O      0.722390000000     0.043300000000     0.501830000000    -0.425337   
O222     O      0.721280000000     0.453110000000     0.991550000000    -0.443211   
O223     O      0.722640000000     0.994260000000     0.041940000000    -0.437134   
O224     O      0.721130000000     0.503660000000     0.451470000000    -0.431339   
O225     O      0.992690000000     0.219560000000     0.041240000000    -0.441031   
O226     O      0.492360000000     0.219020000000     0.450250000000    -0.433508   
O227     O      0.538670000000     0.218650000000     0.995240000000    -0.442316   
O228     O      0.948230000000     0.219970000000     0.496420000000    -0.440001   
O229     O      0.949060000000     0.272370000000     0.991040000000    -0.437962   
O230     O      0.539370000000     0.271170000000     0.499910000000    -0.432511   
O231     O      0.998740000000     0.271390000000     0.450060000000    -0.446377   
O232     O      0.490860000000     0.272240000000     0.040750000000    -0.435918   
O233     O      0.699480000000     0.240090000000     0.480550000000    -0.441161   
O234     O      0.788990000000     0.255540000000     0.479830000000    -0.438227   
O235     O      0.752150000000     0.203180000000     0.480880000000    -0.438794   
O236     O      0.736690000000     0.292790000000     0.479550000000    -0.441982   
O237     O      0.745090000000     0.293940000000     0.031780000000    -0.432308   
O238     O      0.744080000000     0.203510000000     0.033130000000    -0.440135   
O239     O      0.789650000000     0.248110000000     0.032210000000    -0.423048   
O240     O      0.699210000000     0.249110000000     0.032640000000    -0.445959   
O241     O      0.949290000000     0.495920000000     0.774350000000    -0.427394   
O242     O      0.539630000000     0.993020000000     0.780430000000    -0.427426   
O243     O      0.995360000000     0.040470000000     0.781580000000    -0.447951   
O244     O      0.493530000000     0.450110000000     0.773280000000    -0.43311    
O245     O      0.992400000000     0.455210000000     0.720590000000    -0.423353   
O246     O      0.502770000000     0.045040000000     0.729410000000    -0.427101   
O247     O      0.542420000000     0.495730000000     0.727650000000    -0.439727   
O248     O      0.952650000000     0.005270000000     0.722410000000    -0.438799   
O249     O      0.523860000000     0.246230000000     0.701320000000    -0.447133   
O250     O      0.518870000000     0.251260000000     0.791990000000    -0.447802   
O251     O      0.521910000000     0.202820000000     0.748540000000    -0.444664   
O252     O      0.520650000000     0.293090000000     0.744400000000    -0.451747   
O253     O      0.968600000000     0.291810000000     0.737120000000    -0.437304   
O254     O      0.969340000000     0.201760000000     0.750520000000    -0.434665   
O255     O      0.966330000000     0.252220000000     0.788890000000    -0.442375   
O256     O      0.971630000000     0.239920000000     0.698830000000    -0.424802   
O257     O      0.789020000000     0.025040000000     0.740500000000    -0.443005   
O258     O      0.698850000000     0.017430000000     0.743360000000    -0.438085   
O259     O      0.744550000000     0.027690000000     0.787440000000    -0.442705   
O260     O      0.741980000000     0.014810000000     0.697200000000    -0.428631   
O261     O      0.747310000000     0.462850000000     0.704700000000    -0.441239   
O262     O      0.751210000000     0.475880000000     0.794750000000    -0.449146   
O263     O      0.703330000000     0.465770000000     0.752950000000    -0.44091    
O264     O      0.793390000000     0.473130000000     0.748560000000    -0.448867   
O265     O      0.773440000000     0.997990000000     0.950530000000    -0.447395   
O266     O      0.775250000000     0.495720000000     0.541590000000    -0.441511   
O267     O      0.773720000000     0.452270000000     0.995470000000    -0.450365   
O268     O      0.774770000000     0.042850000000     0.496630000000    -0.440826   
O269     O      0.722390000000     0.043300000000     0.001830000000    -0.423761   
O270     O      0.721280000000     0.453110000000     0.491550000000    -0.443312   
O271     O      0.722640000000     0.994260000000     0.541940000000    -0.439224   
O272     O      0.721130000000     0.503660000000     0.951470000000    -0.430903   
O273     O      0.992690000000     0.219560000000     0.541240000000    -0.443048   
O274     O      0.492360000000     0.219020000000     0.950250000000    -0.433067   
O275     O      0.538670000000     0.218650000000     0.495230000000    -0.442554   
O276     O      0.948230000000     0.219970000000     0.996420000000    -0.440529   
O277     O      0.949060000000     0.272370000000     0.491040000000    -0.437745   
O278     O      0.539370000000     0.271170000000     0.999910000000    -0.432618   
O279     O      0.998740000000     0.271390000000     0.950060000000    -0.445939   
O280     O      0.490860000000     0.272240000000     0.540750000000    -0.437912   
O281     O      0.699480000000     0.240090000000     0.980550000000    -0.443434   
O282     O      0.788990000000     0.255540000000     0.979830000000    -0.440439   
O283     O      0.752150000000     0.203180000000     0.980880000000    -0.44103    
O284     O      0.736690000000     0.292790000000     0.979550000000    -0.444202   
O285     O      0.745090000000     0.293940000000     0.531780000000    -0.43147    
O286     O      0.744080000000     0.203510000000     0.533130000000    -0.439305   
O287     O      0.789650000000     0.248110000000     0.532210000000    -0.422174   
O288     O      0.699210000000     0.249110000000     0.532640000000    -0.445142   
O289     O      0.949290000000     0.995920000000     0.274350000000    -0.42772    
O290     O      0.539630000000     0.493020000000     0.280430000000    -0.427397   
O291     O      0.995360000000     0.540470000000     0.281580000000    -0.448275   
O292     O      0.493530000000     0.950110000000     0.273280000000    -0.433002   
O293     O      0.992400000000     0.955220000000     0.220590000000    -0.423685   
O294     O      0.502770000000     0.545040000000     0.229420000000    -0.427111   
O295     O      0.542420000000     0.995730000000     0.227650000000    -0.440092   
O296     O      0.952650000000     0.505270000000     0.222410000000    -0.438521   
O297     O      0.523860000000     0.746230000000     0.201320000000    -0.447152   
O298     O      0.518870000000     0.751260000000     0.291990000000    -0.447798   
O299     O      0.521910000000     0.702820000000     0.248540000000    -0.44466    
O300     O      0.520650000000     0.793090000000     0.244400000000    -0.451825   
O301     O      0.968600000000     0.791810000000     0.237120000000    -0.437383   
O302     O      0.969340000000     0.701760000000     0.250520000000    -0.434682   
O303     O      0.966330000000     0.752220000000     0.288890000000    -0.442383   
O304     O      0.971630000000     0.739930000000     0.198830000000    -0.424844   
O305     O      0.789020000000     0.525040000000     0.240500000000    -0.442913   
O306     O      0.698850000000     0.517420000000     0.243360000000    -0.438654   
O307     O      0.744550000000     0.527690000000     0.287440000000    -0.442609   
O308     O      0.741980000000     0.514810000000     0.197200000000    -0.428952   
O309     O      0.747310000000     0.962850000000     0.204700000000    -0.441145   
O310     O      0.751210000000     0.975880000000     0.294750000000    -0.449434   
O311     O      0.703330000000     0.965770000000     0.252950000000    -0.440862   
O312     O      0.793390000000     0.973130000000     0.248560000000    -0.449161   
O313     O      0.773440000000     0.497990000000     0.450530000000    -0.447357   
O314     O      0.775250000000     0.995720000000     0.041590000000    -0.439673   
O315     O      0.773720000000     0.952270000000     0.495470000000    -0.449769   
O316     O      0.774770000000     0.542850000000     0.996630000000    -0.443427   
O317     O      0.722390000000     0.543300000000     0.501830000000    -0.425745   
O318     O      0.721280000000     0.953110000000     0.991550000000    -0.443283   
O319     O      0.722640000000     0.494260000000     0.041940000000    -0.437127   
O320     O      0.721130000000     0.003660000000     0.451470000000    -0.431087   
O321     O      0.992690000000     0.719560000000     0.041240000000    -0.441037   
O322     O      0.492360000000     0.719030000000     0.450250000000    -0.433699   
O323     O      0.538670000000     0.718650000000     0.995240000000    -0.442332   
O324     O      0.948230000000     0.719970000000     0.496420000000    -0.440014   
O325     O      0.949060000000     0.772370000000     0.991040000000    -0.437968   
O326     O      0.539370000000     0.771170000000     0.499910000000    -0.432516   
O327     O      0.998740000000     0.771390000000     0.450060000000    -0.446444   
O328     O      0.490860000000     0.772240000000     0.040750000000    -0.435919   
O329     O      0.699480000000     0.740090000000     0.480550000000    -0.441173   
O330     O      0.788990000000     0.755530000000     0.479830000000    -0.438275   
O331     O      0.752150000000     0.703180000000     0.480880000000    -0.438817   
O332     O      0.736690000000     0.792790000000     0.479550000000    -0.441999   
O333     O      0.745090000000     0.793940000000     0.031780000000    -0.432316   
O334     O      0.744080000000     0.703510000000     0.033130000000    -0.440168   
O335     O      0.789650000000     0.748110000000     0.032210000000    -0.423063   
O336     O      0.699210000000     0.749110000000     0.032640000000    -0.445967   
O337     O      0.949290000000     0.995920000000     0.774350000000    -0.427752   
O338     O      0.539630000000     0.493020000000     0.780430000000    -0.427426   
O339     O      0.995360000000     0.540470000000     0.781580000000    -0.448252   
O340     O      0.493530000000     0.950110000000     0.773280000000    -0.433016   
O341     O      0.992400000000     0.955220000000     0.720590000000    -0.423734   
O342     O      0.502770000000     0.545040000000     0.729410000000    -0.426967   
O343     O      0.542420000000     0.995730000000     0.727650000000    -0.440138   
O344     O      0.952650000000     0.505270000000     0.722410000000    -0.438557   
O345     O      0.523860000000     0.746230000000     0.701320000000    -0.447162   
O346     O      0.518870000000     0.751260000000     0.791990000000    -0.447803   
O347     O      0.521910000000     0.702820000000     0.748540000000    -0.444665   
O348     O      0.520650000000     0.793090000000     0.744400000000    -0.45183    
O349     O      0.968600000000     0.791810000000     0.737120000000    -0.437385   
O350     O      0.969340000000     0.701760000000     0.750520000000    -0.434678   
O351     O      0.966330000000     0.752220000000     0.788890000000    -0.442382   
O352     O      0.971630000000     0.739930000000     0.698830000000    -0.42484    
O353     O      0.789020000000     0.525040000000     0.740500000000    -0.442919   
O354     O      0.698850000000     0.517420000000     0.743360000000    -0.438652   
O355     O      0.744550000000     0.527690000000     0.787440000000    -0.442611   
O356     O      0.741980000000     0.514810000000     0.697200000000    -0.428955   
O357     O      0.747310000000     0.962850000000     0.704700000000    -0.44115    
O358     O      0.751210000000     0.975880000000     0.794750000000    -0.449446   
O359     O      0.703330000000     0.965770000000     0.752950000000    -0.440863   
O360     O      0.793390000000     0.973130000000     0.748560000000    -0.449174   
O361     O      0.773440000000     0.497990000000     0.950530000000    -0.44708    
O362     O      0.775250000000     0.995720000000     0.541590000000    -0.441542   
O363     O      0.773720000000     0.952270000000     0.995470000000    -0.450349   
O364     O      0.774770000000     0.542850000000     0.496630000000    -0.441105   
O365     O      0.722390000000     0.543300000000     0.001830000000    -0.424161   
O366     O      0.721280000000     0.953110000000     0.491550000000    -0.443382   
O367     O      0.722640000000     0.494260000000     0.541940000000    -0.439208   
O368     O      0.721130000000     0.003660000000     0.951470000000    -0.430643   
O369     O      0.992690000000     0.719560000000     0.541240000000    -0.443065   
O370     O      0.492360000000     0.719030000000     0.950250000000    -0.433256   
O371     O      0.538670000000     0.718650000000     0.495230000000    -0.44257    
O372     O      0.948230000000     0.719970000000     0.996420000000    -0.440545   
O373     O      0.949060000000     0.772370000000     0.491040000000    -0.43775    
O374     O      0.539370000000     0.771170000000     0.999910000000    -0.432624   
O375     O      0.998740000000     0.771390000000     0.950060000000    -0.446004   
O376     O      0.490860000000     0.772240000000     0.540750000000    -0.437921   
O377     O      0.699480000000     0.740090000000     0.980550000000    -0.443459   
O378     O      0.788990000000     0.755530000000     0.979830000000    -0.440498   
O379     O      0.752150000000     0.703180000000     0.980880000000    -0.441066   
O380     O      0.736690000000     0.792790000000     0.979550000000    -0.444228   
O381     O      0.745090000000     0.793940000000     0.531780000000    -0.431474   
O382     O      0.744080000000     0.703510000000     0.533130000000    -0.439333   
O383     O      0.789650000000     0.748110000000     0.532210000000    -0.422185   
O384     O      0.699210000000     0.749110000000     0.532640000000    -0.445147   


