data_structure

_audit_creation_method RASPA-1.0
_audit_creation_date 2023-6-5
_audit_author_name 'Poobodin Mano'

_cell_length_a    33.8521
_cell_length_b    33.9911
_cell_length_c    40.7167
_cell_angle_alpha 89.9822
_cell_angle_beta  90.0178
_cell_angle_gamma 119.976
_cell_volume      40584.4

_symmetry_cell_setting          triclinic
_symmetry_space_group_name_Hall 'P 1'
_symmetry_space_group_name_H-M  'P 1'
_symmetry_Int_Tables_number     1

_symmetry_equiv_pos_as_xyz 'x,y,z'

loop_
_atom_site_label
_atom_site_type_symbol
_atom_site_fract_x
_atom_site_fract_y
_atom_site_fract_z
_atom_site_charge
C1       C      0.866300000000     0.648030000000     0.273380000000     0.427332   
C2       C      0.803190000000     0.641190000000     0.388700000000     0.432202   
C3       C      0.754670000000     0.609130000000     0.307060000000     0.429355   
C4       C      0.914720000000     0.679830000000     0.355600000000     0.429353   
C5       C      0.160220000000     0.803260000000     0.461280000000     0.430154   
C6       C      0.196510000000     0.854000000000     0.341220000000     0.429232   
C7       C      0.260900000000     0.883190000000     0.418240000000     0.428907   
C8       C      0.096230000000     0.774620000000     0.383950000000     0.432463   
C9       C      0.517270000000     0.024630000000     0.432660000000     0.426989   
C10      C      0.487010000000     0.018830000000     0.055760000000     0.435471   
C11      C      0.417070000000     0.976700000000     0.483640000000     0.433374   
C12      C      0.588540000000     0.068000000000     0.006280000000     0.432622   
C13      C      0.167830000000     0.355060000000     0.193250000000     0.432224   
C14      C      0.205210000000     0.357770000000     0.071870000000     0.434413   
C15      C      0.272400000000     0.392230000000     0.145900000000     0.432071   
C16      C      0.103070000000     0.323360000000     0.118980000000     0.430153   
C17      C      0.842770000000     0.208600000000     0.019620000000     0.42804    
C18      C      0.821560000000     0.187160000000     0.143810000000     0.427291   
C19      C      0.744910000000     0.152270000000     0.072290000000     0.427569   
C20      C      0.917320000000     0.241130000000     0.089200000000     0.42774    
C21      C      0.540680000000     0.522750000000     0.157290000000     0.430919   
C22      C      0.503710000000     0.485770000000     0.278070000000     0.434459   
C23      C      0.437800000000     0.465760000000     0.204120000000     0.424257   
C24      C      0.607640000000     0.543880000000     0.231380000000     0.43326    
C25      C      0.170500000000     0.348250000000     0.326060000000     0.430322   
C26      C      0.221170000000     0.344280000000     0.443160000000     0.431735   
C27      C      0.240050000000     0.307570000000     0.364110000000     0.429115   
C28      C      0.149490000000     0.381420000000     0.404110000000     0.428411   
C29      C      0.360210000000     0.161720000000     0.348750000000     0.435408   
C30      C      0.355900000000     0.192780000000     0.226790000000     0.435526   
C31      C      0.315570000000     0.222260000000     0.300380000000     0.434155   
C32      C      0.399870000000     0.135920000000     0.276410000000     0.428472   
C33      C      0.002310000000     0.523840000000     0.409110000000     0.427542   
C34      C      0.001150000000     0.467890000000     0.025850000000     0.433103   
C35      C      0.046840000000     0.459240000000     0.447910000000     0.429565   
C36      C      0.957330000000     0.534200000000     0.988340000000     0.431186   
C37      C      0.675170000000     0.847730000000     0.097950000000     0.431083   
C38      C      0.683960000000     0.812860000000     0.219000000000     0.426909   
C39      C      0.715400000000     0.781010000000     0.142950000000     0.431809   
C40      C      0.645470000000     0.878320000000     0.175700000000     0.433448   
C41      C      0.856580000000     0.645010000000     0.141310000000     0.428294   
C42      C      0.820400000000     0.644590000000     0.019300000000     0.425901   
C43      C      0.793430000000     0.685860000000     0.093450000000     0.426174   
C44      C      0.882600000000     0.605250000000     0.065960000000     0.426621   
C45      C      0.547790000000     0.023790000000     0.300890000000     0.432737   
C46      C      0.532530000000     0.010620000000     0.176130000000     0.428941   
C47      C      0.493530000000     0.056100000000     0.237630000000     0.434401   
C48      C      0.586290000000     0.975330000000     0.237330000000     0.430166   
C49      C      0.371740000000     0.161440000000     0.982040000000     0.429238   
C50      C      0.391950000000     0.186160000000     0.104990000000     0.434474   
C51      C      0.412130000000     0.258480000000     0.031310000000     0.430177   
C52      C      0.349080000000     0.091910000000     0.057270000000     0.43573    
C53      C      0.526380000000     0.542040000000     0.024180000000     0.434068   
C54      C      0.493010000000     0.479190000000     0.407920000000     0.43255    
C55      C      0.475810000000     0.434440000000     0.990930000000     0.432322   
C56      C      0.548370000000     0.593550000000     0.441360000000     0.429389   
C57      C      0.220890000000     0.883120000000     0.211220000000     0.425539   
C58      C      0.180740000000     0.827290000000     0.092610000000     0.423461   
C59      C      0.147510000000     0.774950000000     0.174400000000     0.432888   
C60      C      0.252870000000     0.933880000000     0.129200000000     0.427708   
C61      C      0.005980000000     0.531330000000     0.275980000000     0.425735   
C62      C      0.000870000000     0.488550000000     0.154940000000     0.426724   
C63      C      0.959830000000     0.424570000000     0.230470000000     0.425859   
C64      C      0.046130000000     0.592710000000     0.199430000000     0.427631   
C65      C      0.816220000000     0.172360000000     0.280710000000     0.428065   
C66      C      0.875280000000     0.235180000000     0.394520000000     0.435514   
C67      C      0.885810000000     0.275220000000     0.307520000000     0.431729   
C68      C      0.797560000000     0.123280000000     0.365710000000     0.433802   
C69      C      0.674710000000     0.879430000000     0.468960000000     0.428387   
C70      C      0.676260000000     0.841240000000     0.347830000000     0.431644   
C71      C      0.636140000000     0.775660000000     0.425230000000     0.433296   
C72      C      0.712010000000     0.942990000000     0.392630000000     0.42705    
C73      C      0.781940000000     0.014890000000     0.378810000000    -0.0119995  
C74      C      0.704730000000     0.008540000000     0.373550000000    -0.0406449  
C75      C      0.799750000000     0.061060000000     0.395020000000    -0.00898338 
C76      C      0.724460000000     0.056380000000     0.388740000000     0.0785727  
C77      C      0.696460000000     0.078260000000     0.377390000000    -0.186042   
C78      C      0.887080000000     0.355290000000     0.243620000000    -0.0132889  
C79      C      0.961220000000     0.354030000000     0.242360000000    -0.0430405  
C80      C      0.876770000000     0.332510000000     0.277200000000    -0.00610278 
C81      C      0.931400000000     0.305820000000     0.257240000000     0.085687   
C82      C      0.905480000000     0.267550000000     0.230960000000    -0.232875   
C83      C      0.119290000000     0.660370000000     0.184390000000    -0.0114907  
C84      C      0.046010000000     0.661780000000     0.179450000000    -0.0398565  
C85      C      0.141440000000     0.706880000000     0.200530000000    -0.00971108 
C86      C      0.070020000000     0.710440000000     0.193820000000     0.0773433  
C87      C      0.046220000000     0.735960000000     0.180960000000    -0.184516   
C88      C      0.616850000000     0.662270000000     0.419650000000    -0.0127212  
C89      C      0.542760000000     0.661230000000     0.426220000000    -0.0400059  
C90      C      0.641520000000     0.707450000000     0.438500000000    -0.0106374  
C91      C      0.567010000000     0.704400000000     0.447120000000     0.0784398  
C92      C      0.539150000000     0.728890000000     0.448620000000    -0.182538   
C93      C      0.256490000000     0.984480000000     0.085630000000    -0.00995461 
C94      C      0.327700000000     0.002190000000     0.118670000000    -0.0395598  
C95      C      0.291170000000     0.012140000000     0.059100000000    -0.00992107 
C96      C      0.343820000000     0.051860000000     0.108240000000     0.082636   
C97      C      0.321760000000     0.073630000000     0.130790000000    -0.228521   
C98      C      0.474900000000     0.331790000000     0.011820000000    -0.0108581  
C99      C      0.393670000000     0.315720000000     0.011140000000    -0.0392635  
C100     C      0.490270000000     0.380530000000     0.021630000000    -0.0104815  
C101     C      0.410480000000     0.365790000000     0.019470000000     0.0767616  
C102     C      0.375630000000     0.378560000000     0.006440000000    -0.184028   
C103     C      0.642900000000     0.777770000000     0.270860000000    -0.0135918  
C104     C      0.727040000000     0.829810000000     0.271220000000    -0.0387701  
C105     C      0.636770000000     0.808400000000     0.295700000000    -0.00893415 
C106     C      0.721790000000     0.861540000000     0.295320000000     0.0776299  
C107     C      0.766070000000     0.889590000000     0.315050000000    -0.184359   
C108     C      0.717020000000     0.911310000000     0.020730000000    -0.00901103 
C109     C      0.632690000000     0.874050000000     0.020190000000    -0.037588   
C110     C      0.715620000000     0.878050000000     0.046330000000    -0.011013   
C111     C      0.628790000000     0.840030000000     0.047170000000     0.074249   
C112     C      0.587320000000     0.829240000000     0.069120000000    -0.18171    
C113     C      0.791870000000     0.757820000000     0.097020000000    -0.0126693  
C114     C      0.720900000000     0.683710000000     0.108220000000    -0.0406208  
C115     C      0.784260000000     0.777610000000     0.128420000000    -0.00976631 
C116     C      0.712520000000     0.704590000000     0.139290000000     0.0780607  
C117     C      0.661580000000     0.679720000000     0.148050000000    -0.186729   
C118     C      0.656240000000     0.973320000000     0.221650000000    -0.0119891  
C119     C      0.585140000000     0.902360000000     0.236210000000    -0.0376309  
C120     C      0.654910000000     0.954120000000     0.187140000000    -0.0112672  
C121     C      0.580190000000     0.884570000000     0.200950000000     0.0767394  
C122     C      0.549350000000     0.832530000000     0.200710000000    -0.181128   
C123     C      0.052000000000     0.569840000000     0.325450000000    -0.0107347  
C124     C      0.969700000000     0.544520000000     0.324430000000    -0.0377969  
C125     C      0.048250000000     0.550840000000     0.360150000000    -0.0126619  
C126     C      0.961370000000     0.520250000000     0.357810000000     0.074089   
C127     C      0.925590000000     0.526570000000     0.377070000000    -0.184942   
C128     C      0.959030000000     0.464070000000     0.102360000000    -0.0131794  
C129     C      0.044870000000     0.495580000000     0.104880000000    -0.0423709  
C130     C      0.956140000000     0.431460000000     0.075150000000    -0.00944192 
C131     C      0.039680000000     0.462580000000     0.077390000000     0.0822088  
C132     C      0.084140000000     0.478690000000     0.058010000000    -0.188383   
C133     C      0.953990000000     0.609120000000     0.046300000000    -0.0121424  
C134     C      0.880920000000     0.535070000000     0.047240000000    -0.0396696  
C135     C      0.958690000000     0.603140000000     0.009420000000    -0.0104046  
C136     C      0.884590000000     0.530170000000     0.009920000000     0.0768096  
C137     C      0.855800000000     0.480070000000     0.499600000000    -0.182279   
C138     C      0.325880000000     0.147910000000     0.432110000000    -0.0127468  
C139     C      0.411750000000     0.180640000000     0.429130000000    -0.0411136  
C140     C      0.321180000000     0.123490000000     0.399630000000    -0.00793383 
C141     C      0.405240000000     0.156450000000     0.396210000000     0.0796605  
C142     C      0.448840000000     0.180160000000     0.375190000000    -0.186188   
C143     C      0.361930000000     0.144070000000     0.156260000000    -0.0344732  
C144     C      0.422930000000     0.226270000000     0.156440000000    -0.0407354  
C145     C      0.328980000000     0.156490000000     0.172950000000    -0.00394887 
C146     C      0.390080000000     0.238010000000     0.174460000000     0.0791047  
C147     C      0.415810000000     0.282680000000     0.193870000000    -0.184962   
C148     C      0.473370000000     0.137230000000     0.271260000000    -0.0119884  
C149     C      0.398930000000     0.063920000000     0.264150000000    -0.0419054  
C150     C      0.491050000000     0.127240000000     0.239670000000    -0.0105129  
C151     C      0.417970000000     0.055040000000     0.232540000000     0.080281   
C152     C      0.392640000000     0.004300000000     0.223440000000    -0.185674   
C153     C      0.076190000000     0.370810000000     0.424030000000    -0.0124036  
C154     C      0.142550000000     0.449730000000     0.411100000000    -0.0404364  
C155     C      0.047870000000     0.394470000000     0.421730000000    -0.00943142 
C156     C      0.121910000000     0.466450000000     0.437400000000     0.0797676  
C157     C      0.139760000000     0.464710000000     0.971750000000    -0.182285   
C158     C      0.311270000000     0.311080000000     0.343620000000    -0.0127497  
C159     C      0.238430000000     0.236350000000     0.349010000000    -0.0402645  
C160     C      0.318580000000     0.295960000000     0.309560000000    -0.0108454  
C161     C      0.243470000000     0.224940000000     0.313460000000     0.0788225  
C162     C      0.213280000000     0.173670000000     0.307010000000    -0.183438   
C163     C      0.508670000000     0.442500000000     0.360900000000    -0.00957637 
C164     C      0.443390000000     0.456100000000     0.358830000000    -0.0371351  
C165     C      0.528190000000     0.469160000000     0.329200000000    -0.0105213  
C166     C      0.461850000000     0.485860000000     0.327960000000     0.0771561  
C167     C      0.421110000000     0.478010000000     0.306180000000    -0.187342   
C168     C      0.575040000000     0.573320000000     0.109900000000    -0.0118908  
C169     C      0.503580000000     0.496090000000     0.104810000000    -0.0373782  
C170     C      0.576090000000     0.570360000000     0.072210000000    -0.0111908  
C171     C      0.490360000000     0.521720000000     0.080080000000     0.0758421  
C172     C      0.444360000000     0.487960000000     0.064120000000    -0.183933   
C173     C      0.868790000000     0.191260000000     0.467670000000    -0.0123533  
C174     C      0.838510000000     0.246270000000     0.468780000000    -0.040857   
C175     C      0.907430000000     0.224400000000     0.444970000000    -0.010398   
C176     C      0.877550000000     0.277550000000     0.445750000000     0.0806483  
C177     C      0.866710000000     0.309540000000     0.425870000000    -0.184305   
C178     C      0.810750000000     0.137200000000     0.227330000000    -0.0157116  
C179     C      0.826410000000     0.219030000000     0.232660000000    -0.0660919  
C180     C      0.833210000000     0.153450000000     0.193730000000    -0.00711493 
C181     C      0.807640000000     0.212720000000     0.197280000000     0.0858394  
C182     C      0.755700000000     0.192720000000     0.197440000000    -0.184809   
C183     C      0.122470000000     0.310190000000     0.277850000000    -0.012775   
C184     C      0.180250000000     0.395200000000     0.277900000000    -0.0392854  
C185     C      0.138280000000     0.309090000000     0.242930000000    -0.00646043 
C186     C      0.162600000000     0.393800000000     0.242860000000     0.0794005  
C187     C      0.119110000000     0.397380000000     0.242080000000    -0.185039   
C188     C      0.212000000000     0.304560000000     0.995950000000    -0.00920989 
C189     C      0.265740000000     0.387410000000     0.991670000000    -0.0372432  
C190     C      0.184410000000     0.312400000000     0.021900000000    -0.0103286  
C191     C      0.239780000000     0.397680000000     0.018410000000     0.0745221  
C192     C      0.274420000000     0.439950000000     0.037950000000    -0.181612   
C193     C      0.988000000000     0.312130000000     0.102860000000    -0.0134989  
C194     C      0.989620000000     0.240560000000     0.086760000000    -0.0417394  
C195     C      0.040160000000     0.334370000000     0.099640000000    -0.00874253 
C196     C      0.027980000000     0.255120000000     0.111810000000     0.0809846  
C197     C      0.009360000000     0.238900000000     0.146600000000    -0.180669   
C198     C      0.363200000000     0.395900000000     0.193130000000    -0.013628   
C199     C      0.371480000000     0.473280000000     0.187730000000    -0.0412641  
C200     C      0.338550000000     0.382570000000     0.159710000000    -0.0108009  
C201     C      0.351870000000     0.461000000000     0.152930000000     0.0785992  
C202     C      0.335620000000     0.493490000000     0.140870000000    -0.182284   
C203     C      0.506850000000     0.981440000000     0.381600000000    -0.0126425  
C204     C      0.535550000000     0.065590000000     0.379670000000    -0.0389151  
C205     C      0.539910000000     0.986980000000     0.354160000000    -0.00785563 
C206     C      0.570040000000     0.071050000000     0.352740000000     0.0764333  
C207     C      0.581460000000     0.113130000000     0.331640000000    -0.183972   
C208     C      0.548850000000     0.052070000000     0.123450000000    -0.013031   
C209     C      0.492800000000     0.968000000000     0.125780000000    -0.0412018  
C210     C      0.512270000000     0.059810000000     0.107330000000    -0.00972083 
C211     C      0.457320000000     0.976680000000     0.108850000000     0.0817124  
C212     C      0.421240000000     0.934830000000     0.089970000000    -0.188112   
C213     C      0.674900000000     0.079150000000     0.059320000000    -0.0119699  
C214     C      0.674680000000     0.152470000000     0.055340000000    -0.0401159  
C215     C      0.658970000000     0.068470000000     0.023450000000    -0.0112546  
C216     C      0.661220000000     0.142590000000     0.018920000000     0.077717   
C217     C      0.639940000000     0.170640000000     0.006540000000    -0.182342   
C218     C      0.260500000000     0.886040000000     0.263210000000    -0.0123136  
C219     C      0.206440000000     0.915050000000     0.261830000000    -0.0381111  
C220     C      0.232050000000     0.851230000000     0.289600000000    -0.00977703 
C221     C      0.177320000000     0.881730000000     0.289190000000     0.0752767  
C222     C      0.153570000000     0.902470000000     0.309200000000    -0.18288    
C223     C      0.146050000000     0.832710000000     0.040880000000    -0.0128854  
C224     C      0.199200000000     0.800210000000     0.041650000000    -0.0395144  
C225     C      0.120160000000     0.800820000000     0.012460000000    -0.00835304 
C226     C      0.171180000000     0.768080000000     0.013320000000     0.076252   
C227     C      0.200650000000     0.753040000000     0.494260000000    -0.183475   
C228     C      0.335730000000     0.893770000000     0.435050000000    -0.0125087  
C229     C      0.321510000000     0.959620000000     0.436810000000    -0.041005   
C230     C      0.350300000000     0.902330000000     0.471010000000    -0.00930334 
C231     C      0.339280000000     0.969300000000     0.472480000000     0.0793658  
C232     C      0.357420000000     0.019390000000     0.981610000000    -0.18746    
C233     C      0.836540000000     0.684480000000     0.466150000000    -0.0120536  
C234     C      0.787380000000     0.598450000000     0.469420000000    -0.0414115  
C235     C      0.806140000000     0.684090000000     0.438120000000    -0.00989537 
C236     C      0.759600000000     0.600220000000     0.440170000000     0.0798533  
C237     C      0.735910000000     0.554960000000     0.421270000000    -0.186008   
C238     C      0.906920000000     0.692150000000     0.223720000000    -0.0090184  
C239     C      0.876110000000     0.609160000000     0.225070000000    -0.0377291  
C240     C      0.881960000000     0.688720000000     0.191680000000    -0.0123539  
C241     C      0.848790000000     0.602110000000     0.193030000000     0.0750587  
C242     C      0.849830000000     0.563980000000     0.172980000000    -0.184239   
C243     C      0.685700000000     0.541850000000     0.284700000000    -0.0123596  
C244     C      0.692330000000     0.618890000000     0.284140000000    -0.0410476  
C245     C      0.673900000000     0.536690000000     0.247930000000    -0.0108619  
C246     C      0.682390000000     0.613670000000     0.247220000000     0.080907   
C247     C      0.665210000000     0.645440000000     0.235370000000    -0.186119   
C248     C      0.981160000000     0.747910000000     0.378370000000    -0.0109488  
C249     C      0.979700000000     0.673610000000     0.378610000000    -0.0390856  
C250     C      0.027060000000     0.770090000000     0.361500000000    -0.00822049 
C251     C      0.029720000000     0.697760000000     0.365850000000     0.0765096  
C252     C      0.054130000000     0.673480000000     0.380000000000    -0.186349   
C253     C      0.866300000000     0.648040000000     0.773380000000     0.42716    
C254     C      0.803190000000     0.641190000000     0.888700000000     0.432335   
C255     C      0.754680000000     0.609130000000     0.807070000000     0.42945    
C256     C      0.914720000000     0.679830000000     0.855600000000     0.429335   
C257     C      0.160220000000     0.803260000000     0.961280000000     0.430282   
C258     C      0.196510000000     0.854000000000     0.841220000000     0.429076   
C259     C      0.260890000000     0.883190000000     0.918240000000     0.429009   
C260     C      0.096230000000     0.774620000000     0.883950000000     0.432469   
C261     C      0.517270000000     0.024630000000     0.932660000000     0.427016   
C262     C      0.487010000000     0.018830000000     0.555770000000     0.435301   
C263     C      0.417070000000     0.976700000000     0.983640000000     0.433282   
C264     C      0.588540000000     0.068000000000     0.506280000000     0.432631   
C265     C      0.167830000000     0.355060000000     0.693250000000     0.43219    
C266     C      0.205210000000     0.357770000000     0.571860000000     0.434465   
C267     C      0.272400000000     0.392230000000     0.645900000000     0.432094   
C268     C      0.103070000000     0.323360000000     0.618980000000     0.430192   
C269     C      0.842770000000     0.208600000000     0.519630000000     0.428076   
C270     C      0.821560000000     0.187160000000     0.643810000000     0.427414   
C271     C      0.744910000000     0.152270000000     0.572290000000     0.427571   
C272     C      0.917320000000     0.241130000000     0.589200000000     0.427762   
C273     C      0.540680000000     0.522740000000     0.657290000000     0.431046   
C274     C      0.503710000000     0.485770000000     0.778060000000     0.434771   
C275     C      0.437800000000     0.465760000000     0.704120000000     0.424257   
C276     C      0.607640000000     0.543880000000     0.731380000000     0.433418   
C277     C      0.170500000000     0.348250000000     0.826060000000     0.430228   
C278     C      0.221170000000     0.344270000000     0.943160000000     0.431795   
C279     C      0.240050000000     0.307570000000     0.864110000000     0.429102   
C280     C      0.149490000000     0.381420000000     0.904120000000     0.428276   
C281     C      0.360210000000     0.161720000000     0.848750000000     0.435508   
C282     C      0.355900000000     0.192780000000     0.726790000000     0.435523   
C283     C      0.315570000000     0.222260000000     0.800370000000     0.434151   
C284     C      0.399870000000     0.135920000000     0.776410000000     0.428472   
C285     C      0.002310000000     0.523840000000     0.909110000000     0.427431   
C286     C      0.001150000000     0.467890000000     0.525850000000     0.432764   
C287     C      0.046840000000     0.459240000000     0.947910000000     0.429365   
C288     C      0.957330000000     0.534200000000     0.488340000000     0.431245   
C289     C      0.675170000000     0.847730000000     0.597950000000     0.431118   
C290     C      0.683960000000     0.812860000000     0.719010000000     0.426659   
C291     C      0.715400000000     0.781000000000     0.642950000000     0.431869   
C292     C      0.645470000000     0.878320000000     0.675700000000     0.433582   
C293     C      0.856580000000     0.645010000000     0.641310000000     0.428327   
C294     C      0.820400000000     0.644590000000     0.519300000000     0.425797   
C295     C      0.793430000000     0.685860000000     0.593440000000     0.426385   
C296     C      0.882600000000     0.605250000000     0.565960000000     0.426452   
C297     C      0.547790000000     0.023790000000     0.800890000000     0.432725   
C298     C      0.532530000000     0.010620000000     0.676130000000     0.429021   
C299     C      0.493530000000     0.056100000000     0.737630000000     0.434351   
C300     C      0.586300000000     0.975330000000     0.737330000000     0.430044   
C301     C      0.371740000000     0.161440000000     0.482040000000     0.429262   
C302     C      0.391950000000     0.186160000000     0.604990000000     0.434442   
C303     C      0.412130000000     0.258480000000     0.531310000000     0.430173   
C304     C      0.349080000000     0.091910000000     0.557270000000     0.435714   
C305     C      0.526380000000     0.542040000000     0.524180000000     0.434174   
C306     C      0.493010000000     0.479190000000     0.907920000000     0.432542   
C307     C      0.475810000000     0.434440000000     0.490930000000     0.432267   
C308     C      0.548370000000     0.593560000000     0.941360000000     0.428995   
C309     C      0.220890000000     0.883120000000     0.711220000000     0.425672   
C310     C      0.180740000000     0.827290000000     0.592610000000     0.423256   
C311     C      0.147510000000     0.774950000000     0.674400000000     0.432959   
C312     C      0.252870000000     0.933890000000     0.629190000000     0.427805   
C313     C      0.005980000000     0.531330000000     0.775980000000     0.425956   
C314     C      0.000870000000     0.488550000000     0.654940000000     0.426736   
C315     C      0.959830000000     0.424560000000     0.730470000000     0.425803   
C316     C      0.046130000000     0.592720000000     0.699430000000     0.427424   
C317     C      0.816220000000     0.172360000000     0.780710000000     0.428059   
C318     C      0.875280000000     0.235180000000     0.894520000000     0.435612   
C319     C      0.885810000000     0.275220000000     0.807520000000     0.431721   
C320     C      0.797560000000     0.123280000000     0.865710000000     0.433795   
C321     C      0.674710000000     0.879430000000     0.968960000000     0.428277   
C322     C      0.676260000000     0.841230000000     0.847830000000     0.431759   
C323     C      0.636140000000     0.775660000000     0.925230000000     0.433274   
C324     C      0.712010000000     0.942990000000     0.892620000000     0.426994   
C325     C      0.781940000000     0.014890000000     0.878810000000    -0.0120176  
C326     C      0.704730000000     0.008540000000     0.873550000000    -0.0406444  
C327     C      0.799750000000     0.061060000000     0.895020000000    -0.00900874 
C328     C      0.724460000000     0.056380000000     0.888740000000     0.0785737  
C329     C      0.696460000000     0.078260000000     0.877390000000    -0.186042   
C330     C      0.887080000000     0.355290000000     0.743620000000    -0.0132634  
C331     C      0.961220000000     0.354030000000     0.742360000000    -0.0430104  
C332     C      0.876770000000     0.332510000000     0.777200000000    -0.006133   
C333     C      0.931400000000     0.305820000000     0.757240000000     0.0856792  
C334     C      0.905480000000     0.267550000000     0.730960000000    -0.232871   
C335     C      0.119290000000     0.660370000000     0.684390000000    -0.0114707  
C336     C      0.046010000000     0.661780000000     0.679450000000    -0.0398692  
C337     C      0.141440000000     0.706880000000     0.700530000000    -0.00976304 
C338     C      0.070020000000     0.710440000000     0.693820000000     0.0773838  
C339     C      0.046220000000     0.735950000000     0.680960000000    -0.184434   
C340     C      0.616850000000     0.662270000000     0.919650000000    -0.0127027  
C341     C      0.542760000000     0.661240000000     0.926220000000    -0.0401868  
C342     C      0.641520000000     0.707450000000     0.938500000000    -0.0106393  
C343     C      0.567000000000     0.704400000000     0.947120000000     0.0785297  
C344     C      0.539140000000     0.728890000000     0.948620000000    -0.182811   
C345     C      0.256490000000     0.984480000000     0.585630000000    -0.00994817 
C346     C      0.327700000000     0.002190000000     0.618670000000    -0.0395557  
C347     C      0.291170000000     0.012140000000     0.559100000000    -0.00991965 
C348     C      0.343820000000     0.051860000000     0.608240000000     0.0826351  
C349     C      0.321760000000     0.073630000000     0.630790000000    -0.228518   
C350     C      0.474900000000     0.331790000000     0.511820000000    -0.0109106  
C351     C      0.393670000000     0.315720000000     0.511140000000    -0.0393346  
C352     C      0.490270000000     0.380530000000     0.521630000000    -0.0104493  
C353     C      0.410480000000     0.365790000000     0.519470000000     0.0767458  
C354     C      0.375630000000     0.378570000000     0.506440000000    -0.184134   
C355     C      0.642900000000     0.777770000000     0.770860000000    -0.0135954  
C356     C      0.727040000000     0.829810000000     0.771210000000    -0.0386895  
C357     C      0.636770000000     0.808400000000     0.795700000000    -0.008913   
C358     C      0.721790000000     0.861540000000     0.795320000000     0.077612   
C359     C      0.766070000000     0.889590000000     0.815050000000    -0.184355   
C360     C      0.717020000000     0.911310000000     0.520740000000    -0.00902105 
C361     C      0.632700000000     0.874050000000     0.520190000000    -0.0374882  
C362     C      0.715620000000     0.878050000000     0.546320000000    -0.0110244  
C363     C      0.628790000000     0.840030000000     0.547170000000     0.0742122  
C364     C      0.587320000000     0.829240000000     0.569120000000    -0.1817     
C365     C      0.791870000000     0.757820000000     0.597020000000    -0.0126792  
C366     C      0.720900000000     0.683710000000     0.608220000000    -0.0406159  
C367     C      0.784260000000     0.777610000000     0.628420000000    -0.0097194  
C368     C      0.712520000000     0.704590000000     0.639290000000     0.0780853  
C369     C      0.661580000000     0.679720000000     0.648050000000    -0.186864   
C370     C      0.656240000000     0.973320000000     0.721650000000    -0.0120083  
C371     C      0.585140000000     0.902360000000     0.736210000000    -0.0375873  
C372     C      0.654910000000     0.954120000000     0.687140000000    -0.0112565  
C373     C      0.580190000000     0.884570000000     0.700950000000     0.0767135  
C374     C      0.549350000000     0.832520000000     0.700710000000    -0.18117    
C375     C      0.052000000000     0.569840000000     0.825450000000    -0.0107104  
C376     C      0.969700000000     0.544520000000     0.824430000000    -0.0377899  
C377     C      0.048250000000     0.550840000000     0.860150000000    -0.0126833  
C378     C      0.961370000000     0.520250000000     0.857810000000     0.0740763  
C379     C      0.925580000000     0.526570000000     0.877070000000    -0.185083   
C380     C      0.959040000000     0.464070000000     0.602360000000    -0.0130825  
C381     C      0.044870000000     0.495580000000     0.604880000000    -0.0423392  
C382     C      0.956140000000     0.431470000000     0.575150000000    -0.00947616 
C383     C      0.039680000000     0.462580000000     0.577390000000     0.0821823  
C384     C      0.084140000000     0.478690000000     0.558010000000    -0.188366   
C385     C      0.953990000000     0.609120000000     0.546300000000    -0.0121099  
C386     C      0.880920000000     0.535070000000     0.547240000000    -0.0396059  
C387     C      0.958680000000     0.603140000000     0.509420000000    -0.010478   
C388     C      0.884590000000     0.530170000000     0.509920000000     0.0766349  
C389     C      0.855810000000     0.480080000000     0.999600000000    -0.182395   
C390     C      0.325880000000     0.147910000000     0.932110000000    -0.0127309  
C391     C      0.411750000000     0.180640000000     0.929130000000    -0.0411377  
C392     C      0.321180000000     0.123490000000     0.899630000000    -0.00799141 
C393     C      0.405240000000     0.156450000000     0.896210000000     0.079719   
C394     C      0.448840000000     0.180160000000     0.875190000000    -0.186205   
C395     C      0.361930000000     0.144070000000     0.656260000000    -0.0344742  
C396     C      0.422930000000     0.226270000000     0.656440000000    -0.0407375  
C397     C      0.328980000000     0.156490000000     0.672950000000    -0.00394798 
C398     C      0.390080000000     0.238010000000     0.674460000000     0.0791051  
C399     C      0.415810000000     0.282680000000     0.693870000000    -0.184961   
C400     C      0.473370000000     0.137230000000     0.771260000000    -0.0119815  
C401     C      0.398930000000     0.063920000000     0.764150000000    -0.0419506  
C402     C      0.491050000000     0.127240000000     0.739670000000    -0.0105345  
C403     C      0.417970000000     0.055040000000     0.732540000000     0.0803122  
C404     C      0.392640000000     0.004300000000     0.723440000000    -0.185761   
C405     C      0.076190000000     0.370810000000     0.924020000000    -0.0124401  
C406     C      0.142550000000     0.449730000000     0.911100000000    -0.04039    
C407     C      0.047870000000     0.394470000000     0.921740000000    -0.00931908 
C408     C      0.121910000000     0.466450000000     0.937400000000     0.0797195  
C409     C      0.139760000000     0.464710000000     0.471750000000    -0.182309   
C410     C      0.311270000000     0.311080000000     0.843620000000    -0.0127697  
C411     C      0.238430000000     0.236350000000     0.849010000000    -0.0402612  
C412     C      0.318580000000     0.295960000000     0.809560000000    -0.0108436  
C413     C      0.243470000000     0.224940000000     0.813460000000     0.0788316  
C414     C      0.213280000000     0.173670000000     0.807010000000    -0.183442   
C415     C      0.508670000000     0.442500000000     0.860900000000    -0.00956516 
C416     C      0.443390000000     0.456100000000     0.858830000000    -0.0371243  
C417     C      0.528190000000     0.469160000000     0.829200000000    -0.0105593  
C418     C      0.461850000000     0.485870000000     0.827960000000     0.0771646  
C419     C      0.421110000000     0.478000000000     0.806180000000    -0.187318   
C420     C      0.575040000000     0.573320000000     0.609900000000    -0.0118785  
C421     C      0.503580000000     0.496090000000     0.604810000000    -0.0373669  
C422     C      0.576090000000     0.570360000000     0.572210000000    -0.0111918  
C423     C      0.490350000000     0.521720000000     0.580080000000     0.0758238  
C424     C      0.444360000000     0.487960000000     0.564120000000    -0.183912   
C425     C      0.868790000000     0.191260000000     0.967670000000    -0.0123594  
C426     C      0.838510000000     0.246270000000     0.968780000000    -0.040845   
C427     C      0.907430000000     0.224400000000     0.944960000000    -0.0103587  
C428     C      0.877550000000     0.277550000000     0.945750000000     0.0806446  
C429     C      0.866710000000     0.309540000000     0.925870000000    -0.184301   
C430     C      0.810750000000     0.137200000000     0.727330000000    -0.015711   
C431     C      0.826410000000     0.219030000000     0.732660000000    -0.066096   
C432     C      0.833210000000     0.153450000000     0.693730000000    -0.0071203  
C433     C      0.807640000000     0.212720000000     0.697280000000     0.0858626  
C434     C      0.755710000000     0.192720000000     0.697440000000    -0.184734   
C435     C      0.122470000000     0.310190000000     0.777850000000    -0.0127318  
C436     C      0.180260000000     0.395200000000     0.777910000000    -0.0392993  
C437     C      0.138280000000     0.309090000000     0.742930000000    -0.00647741 
C438     C      0.162600000000     0.393800000000     0.742860000000     0.0793754  
C439     C      0.119110000000     0.397380000000     0.742080000000    -0.184998   
C440     C      0.212000000000     0.304560000000     0.495950000000    -0.00907541 
C441     C      0.265740000000     0.387410000000     0.491670000000    -0.0371848  
C442     C      0.184410000000     0.312400000000     0.521900000000    -0.0103815  
C443     C      0.239780000000     0.397670000000     0.518410000000     0.0745088  
C444     C      0.274420000000     0.439960000000     0.537950000000    -0.181725   
C445     C      0.988000000000     0.312130000000     0.602860000000    -0.0134935  
C446     C      0.989620000000     0.240560000000     0.586760000000    -0.0417428  
C447     C      0.040160000000     0.334370000000     0.599640000000    -0.00875731 
C448     C      0.027980000000     0.255120000000     0.611810000000     0.0809929  
C449     C      0.009360000000     0.238900000000     0.646600000000    -0.180665   
C450     C      0.363200000000     0.395900000000     0.693130000000    -0.0135757  
C451     C      0.371480000000     0.473280000000     0.687730000000    -0.0412799  
C452     C      0.338550000000     0.382570000000     0.659710000000    -0.0108645  
C453     C      0.351870000000     0.461000000000     0.652930000000     0.0786535  
C454     C      0.335620000000     0.493490000000     0.640870000000    -0.182303   
C455     C      0.506850000000     0.981450000000     0.881600000000    -0.0125478  
C456     C      0.535550000000     0.065590000000     0.879670000000    -0.0389145  
C457     C      0.539910000000     0.986980000000     0.854160000000    -0.00790683 
C458     C      0.570040000000     0.071050000000     0.852740000000     0.0764276  
C459     C      0.581450000000     0.113130000000     0.831640000000    -0.183987   
C460     C      0.548850000000     0.052070000000     0.623450000000    -0.0130128  
C461     C      0.492800000000     0.968010000000     0.625780000000    -0.0410958  
C462     C      0.512270000000     0.059810000000     0.607330000000    -0.00975288 
C463     C      0.457320000000     0.976670000000     0.608850000000     0.0816756  
C464     C      0.421240000000     0.934830000000     0.589970000000    -0.188106   
C465     C      0.674900000000     0.079150000000     0.559320000000    -0.0119725  
C466     C      0.674680000000     0.152470000000     0.555350000000    -0.0401147  
C467     C      0.658970000000     0.068470000000     0.523450000000    -0.0112519  
C468     C      0.661220000000     0.142590000000     0.518920000000     0.0777211  
C469     C      0.639940000000     0.170640000000     0.506540000000    -0.182424   
C470     C      0.260500000000     0.886040000000     0.763210000000    -0.0122712  
C471     C      0.206440000000     0.915050000000     0.761830000000    -0.0381133  
C472     C      0.232050000000     0.851230000000     0.789600000000    -0.00979695 
C473     C      0.177320000000     0.881730000000     0.789190000000     0.0753018  
C474     C      0.153570000000     0.902470000000     0.809200000000    -0.183009   
C475     C      0.146050000000     0.832710000000     0.540880000000    -0.0128272  
C476     C      0.199190000000     0.800200000000     0.541650000000    -0.0394509  
C477     C      0.120160000000     0.800830000000     0.512460000000    -0.00854527 
C478     C      0.171180000000     0.768080000000     0.513320000000     0.0760975  
C479     C      0.200650000000     0.753040000000     0.994260000000    -0.183705   
C480     C      0.335730000000     0.893770000000     0.935050000000    -0.0125173  
C481     C      0.321510000000     0.959620000000     0.936810000000    -0.0410238  
C482     C      0.350300000000     0.902330000000     0.971010000000    -0.00931662 
C483     C      0.339280000000     0.969300000000     0.972480000000     0.0794114  
C484     C      0.357420000000     0.019390000000     0.481610000000    -0.187415   
C485     C      0.836550000000     0.684480000000     0.966150000000    -0.0120563  
C486     C      0.787380000000     0.598450000000     0.969420000000    -0.0413925  
C487     C      0.806140000000     0.684090000000     0.938120000000    -0.00993253 
C488     C      0.759600000000     0.600220000000     0.940170000000     0.0799183  
C489     C      0.735910000000     0.554970000000     0.921270000000    -0.185966   
C490     C      0.906920000000     0.692160000000     0.723720000000    -0.00911036 
C491     C      0.876110000000     0.609160000000     0.725070000000    -0.0377311  
C492     C      0.881960000000     0.688720000000     0.691680000000    -0.0123143  
C493     C      0.848790000000     0.602110000000     0.693030000000     0.0750551  
C494     C      0.849830000000     0.563980000000     0.672980000000    -0.184194   
C495     C      0.685710000000     0.541850000000     0.784700000000    -0.0124792  
C496     C      0.692330000000     0.618890000000     0.784140000000    -0.041041   
C497     C      0.673900000000     0.536700000000     0.747930000000    -0.0107382  
C498     C      0.682390000000     0.613670000000     0.747220000000     0.0808996  
C499     C      0.665210000000     0.645440000000     0.735370000000    -0.186052   
C500     C      0.981160000000     0.747910000000     0.878370000000    -0.0109785  
C501     C      0.979700000000     0.673610000000     0.878610000000    -0.0390962  
C502     C      0.027060000000     0.770090000000     0.861500000000    -0.00821794 
C503     C      0.029720000000     0.697760000000     0.865850000000     0.0765422  
C504     C      0.054130000000     0.673480000000     0.880000000000    -0.186458   
H1       H      0.699400000000     0.084160000000     0.350430000000     0.0793389  
H2       H      0.705660000000     0.011700000000     0.346330000000     0.0459329  
H3       H      0.789840000000     0.020190000000     0.352120000000     0.0385823  
H4       H      0.837220000000     0.081680000000     0.391330000000     0.0408894  
H5       H      0.668390000000     0.987410000000     0.380960000000     0.05051    
H6       H      0.659850000000     0.055340000000     0.383220000000     0.0639753  
H7       H      0.719410000000     0.051360000000     0.415770000000     0.0191203  
H8       H      0.800430000000     0.998440000000     0.389270000000     0.0406989  
H9       H      0.793910000000     0.055650000000     0.421950000000     0.0360136  
H10      H      0.707140000000     0.110420000000     0.390880000000     0.0781722  
H11      H      0.900170000000     0.284040000000     0.209100000000     0.0711026  
H12      H      0.976080000000     0.352140000000     0.218460000000     0.0405028  
H13      H      0.869750000000     0.329010000000     0.224380000000     0.0332646  
H14      H      0.839160000000     0.310670000000     0.279640000000     0.0359629  
H15      H      0.990810000000     0.373730000000     0.258990000000     0.0503875  
H16      H      0.929970000000     0.266960000000     0.213100000000     0.058181   
H17      H      0.956300000000     0.297980000000     0.269220000000     0.0189579  
H18      H      0.872340000000     0.378050000000     0.242630000000     0.0416047  
H19      H      0.888020000000     0.358900000000     0.296670000000     0.0406255  
H20      H      0.908840000000     0.238220000000     0.239620000000     0.0760224  
H21      H      0.052390000000     0.743040000000     0.154240000000     0.0780902  
H22      H      0.046780000000     0.664070000000     0.152170000000     0.0450904  
H23      H      0.126630000000     0.665020000000     0.157600000000     0.0388339  
H24      H      0.178880000000     0.724020000000     0.196570000000     0.0412198  
H25      H      0.009630000000     0.643660000000     0.187180000000     0.0493712  
H26      H      0.008800000000     0.715030000000     0.184660000000     0.062134   
H27      H      0.064180000000     0.706620000000     0.220830000000     0.0188259  
H28      H      0.135240000000     0.641200000000     0.194440000000     0.0417077  
H29      H      0.135630000000     0.701950000000     0.227480000000     0.03673    
H30      H      0.057500000000     0.767810000000     0.195010000000     0.0777096  
H31      H      0.531750000000     0.736750000000     0.423650000000     0.0751122  
H32      H      0.542940000000     0.671160000000     0.400150000000     0.0449107  
H33      H      0.619360000000     0.670180000000     0.392970000000     0.0384132  
H34      H      0.676760000000     0.727690000000     0.428710000000     0.0427269  
H35      H      0.506610000000     0.640370000000     0.434110000000     0.0483362  
H36      H      0.505850000000     0.706520000000     0.460720000000     0.0577694  
H37      H      0.567260000000     0.692900000000     0.472720000000     0.0194175  
H38      H      0.634770000000     0.642860000000     0.424030000000     0.0441957  
H39      H      0.644000000000     0.699830000000     0.464730000000     0.0390686  
H40      H      0.557050000000     0.760200000000     0.463740000000     0.0746558  
H41      H      0.305350000000     0.087380000000     0.114280000000     0.0823376  
H42      H      0.335790000000     0.000500000000     0.144960000000     0.0387129  
H43      H      0.240520000000     0.003730000000     0.095370000000     0.0383855  
H44      H      0.274460000000     0.022020000000     0.039800000000     0.0362092  
H45      H      0.346530000000     0.989160000000     0.104070000000     0.048932   
H46      H      0.284990000000     0.050310000000     0.135280000000     0.0673624  
H47      H      0.381470000000     0.072400000000     0.111340000000     0.0209683  
H48      H      0.228550000000     0.953060000000     0.074230000000     0.0358983  
H49      H      0.302260000000     0.989960000000     0.047000000000     0.0344795  
H50      H      0.321020000000     0.059920000000     0.155850000000     0.0636544  
H51      H      0.375330000000     0.379040000000     0.479150000000     0.079235   
H52      H      0.388560000000     0.310990000000     0.984110000000     0.0452307  
H53      H      0.478430000000     0.330360000000     0.984750000000     0.0394663  
H54      H      0.526170000000     0.402310000000     0.013580000000     0.0424735  
H55      H      0.359850000000     0.294230000000     0.022900000000     0.049663   
H56      H      0.340860000000     0.353040000000     0.014830000000     0.0606443  
H57      H      0.410130000000     0.368020000000     0.046750000000     0.0151074  
H58      H      0.497880000000     0.321440000000     0.023720000000     0.0408492  
H59      H      0.490100000000     0.382280000000     0.048920000000     0.0352159  
H60      H      0.382260000000     0.411600000000     0.016560000000     0.071712   
H61      H      0.774620000000     0.867250000000     0.329670000000     0.0762593  
H62      H      0.732200000000     0.804860000000     0.285560000000     0.042886   
H63      H      0.645960000000     0.751230000000     0.284740000000     0.0355852  
H64      H      0.607210000000     0.786740000000     0.311840000000     0.0370998  
H65      H      0.757610000000     0.849320000000     0.255440000000     0.0472256  
H66      H      0.794890000000     0.909550000000     0.297970000000     0.0597685  
H67      H      0.717600000000     0.886400000000     0.280040000000     0.0209325  
H68      H      0.612060000000     0.760560000000     0.255060000000     0.0380268  
H69      H      0.628770000000     0.831870000000     0.281980000000     0.0364997  
H70      H      0.763260000000     0.914420000000     0.331200000000     0.0766284  
H71      H      0.596230000000     0.856700000000     0.087400000000     0.0718452  
H72      H      0.633860000000     0.904060000000     0.032150000000     0.042461   
H73      H      0.719430000000     0.941170000000     0.033810000000     0.0365956  
H74      H      0.746600000000     0.895890000000     0.061940000000     0.0419451  
H75      H      0.602020000000     0.857780000000     0.004120000000     0.0443278  
H76      H      0.558320000000     0.825790000000     0.054100000000     0.0564099  
H77      H      0.621580000000     0.808110000000     0.034500000000     0.0202093  
H78      H      0.748040000000     0.923570000000     0.005250000000     0.0404478  
H79      H      0.717760000000     0.850390000000     0.033340000000     0.0407453  
H80      H      0.574390000000     0.796130000000     0.081740000000     0.0754003  
H81      H      0.640850000000     0.682090000000     0.127800000000     0.0769493  
H82      H      0.701570000000     0.687270000000     0.087430000000     0.0449696  
H83      H      0.776110000000     0.766350000000     0.076260000000     0.038497   
H84      H      0.800060000000     0.814930000000     0.125060000000     0.0417275  
H85      H      0.707600000000     0.646820000000     0.112230000000     0.0490022  
H86      H      0.649930000000     0.643410000000     0.152490000000     0.0621835  
H87      H      0.729830000000     0.697400000000     0.159770000000     0.0169913  
H88      H      0.829090000000     0.774480000000     0.092190000000     0.0426238  
H89      H      0.802400000000     0.771650000000     0.148900000000     0.0375023  
H90      H      0.655670000000     0.692950000000     0.171340000000     0.0768933  
H91      H      0.564780000000     0.815730000000     0.215030000000     0.0737212  
H92      H      0.605560000000     0.890980000000     0.250640000000     0.0432076  
H93      H      0.677210000000     0.964510000000     0.237780000000     0.0386405  
H94      H      0.690380000000     0.967080000000     0.178400000000     0.0429001  
H95      H      0.551300000000     0.888160000000     0.248370000000     0.0480149  
H96      H      0.515940000000     0.823010000000     0.212140000000     0.0576713  
H97      H      0.561820000000     0.898520000000     0.186720000000     0.0218685  
H98      H      0.672940000000     0.010950000000     0.220390000000     0.0419635  
H99      H      0.638950000000     0.967900000000     0.170240000000     0.0379885  
H100     H      0.541790000000     0.819520000000     0.175130000000     0.0741366  
H101     H      0.941220000000     0.561610000000     0.387030000000     0.0675235  
H102     H      0.977550000000     0.580120000000     0.328540000000     0.04238    
H103     H      0.061420000000     0.606110000000     0.327710000000     0.0315367  
H104     H      0.077200000000     0.576600000000     0.375070000000     0.0380423  
H105     H      0.937980000000     0.527010000000     0.309510000000     0.0483922  
H106     H      0.896560000000     0.520440000000     0.360930000000     0.0589009  
H107     H      0.946640000000     0.483320000000     0.352880000000     0.0255742  
H108     H      0.080280000000     0.569080000000     0.312150000000     0.0405261  
H109     H      0.053150000000     0.520870000000     0.358390000000     0.038756   
H110     H      0.910890000000     0.502110000000     0.397660000000     0.0763862  
H111     H      0.098640000000     0.514220000000     0.049350000000     0.0756473  
H112     H      0.055830000000     0.529480000000     0.093910000000     0.0480198  
H113     H      0.959380000000     0.493880000000     0.090780000000     0.0398615  
H114     H      0.926520000000     0.423480000000     0.059010000000     0.0368754  
H115     H      0.072330000000     0.499550000000     0.121900000000     0.0486616  
H116     H      0.110000000000     0.477370000000     0.074060000000     0.0594618  
H117     H      0.032470000000     0.430410000000     0.089760000000     0.0155009  
H118     H      0.927890000000     0.446460000000     0.117860000000     0.0393271  
H119     H      0.950310000000     0.399340000000     0.086720000000     0.0366205  
H120     H      0.077900000000     0.455760000000     0.036820000000     0.0700304  
H121     H      0.867170000000     0.458560000000     0.512400000000     0.0740466  
H122     H      0.897400000000     0.518110000000     0.060100000000     0.0422312  
H123     H      0.972550000000     0.594910000000     0.059880000000     0.0391511  
H124     H      0.995420000000     0.620640000000     0.002780000000     0.041984   
H125     H      0.844510000000     0.517720000000     0.054840000000     0.0475221  
H126     H      0.819550000000     0.467090000000     0.506310000000     0.0573251  
H127     H      0.868580000000     0.548260000000     0.497950000000     0.0185194  
H128     H      0.970470000000     0.645880000000     0.052260000000     0.0422959  
H129     H      0.943230000000     0.620550000000     0.995860000000     0.0375888  
H130     H      0.856770000000     0.476690000000     0.472530000000     0.0736803  
H131     H      0.459680000000     0.216460000000     0.371020000000     0.0767612  
H132     H      0.421710000000     0.216680000000     0.424420000000     0.0460678  
H133     H      0.325200000000     0.179730000000     0.427070000000     0.0409058  
H134     H      0.290250000000     0.119030000000     0.386680000000     0.0378751  
H135     H      0.440400000000     0.180730000000     0.442590000000     0.0470487  
H136     H      0.477100000000     0.178880000000     0.388090000000     0.05867    
H137     H      0.400030000000     0.122170000000     0.402150000000     0.0159007  
H138     H      0.295950000000     0.125820000000     0.447810000000     0.0394692  
H139     H      0.316400000000     0.089270000000     0.404970000000     0.0355182  
H140     H      0.443630000000     0.162350000000     0.351340000000     0.0751404  
H141     H      0.443010000000     0.283340000000     0.209520000000     0.076087   
H142     H      0.443890000000     0.220740000000     0.174920000000     0.0470215  
H143     H      0.380420000000     0.137730000000     0.176370000000     0.0432847  
H144     H      0.303220000000     0.126720000000     0.187080000000     0.0387839  
H145     H      0.446080000000     0.254800000000     0.140020000000     0.042106   
H146     H      0.432650000000     0.311600000000     0.176440000000     0.0606653  
H147     H      0.370960000000     0.244500000000     0.154940000000     0.0199244  
H148     H      0.343260000000     0.109830000000     0.141920000000     0.0822776  
H149     H      0.310470000000     0.164030000000     0.153640000000     0.0413438  
H150     H      0.391700000000     0.288160000000     0.209030000000     0.0765617  
H151     H      0.391670000000     0.982840000000     0.244350000000     0.0775742  
H152     H      0.405200000000     0.046450000000     0.284920000000     0.0459762  
H153     H      0.484760000000     0.124550000000     0.292350000000     0.0330536  
H154     H      0.528840000000     0.144100000000     0.240930000000     0.0401814  
H155     H      0.361450000000     0.049300000000     0.261710000000     0.0495048  
H156     H      0.356720000000     0.993460000000     0.216970000000     0.0632749  
H157     H      0.410060000000     0.072330000000     0.212450000000     0.0160155  
H158     H      0.489150000000     0.174600000000     0.274070000000     0.0395517  
H159     H      0.482210000000     0.142440000000     0.218720000000     0.0368202  
H160     H      0.408480000000     0.998270000000     0.201540000000     0.0770514  
H161     H      0.127650000000     0.429190000000     0.979530000000     0.0724379  
H162     H      0.180380000000     0.468830000000     0.413170000000     0.0470386  
H163     H      0.076200000000     0.360170000000     0.449840000000     0.038427   
H164     H      0.014160000000     0.372370000000     0.433460000000     0.0426947  
H165     H      0.134130000000     0.457750000000     0.386490000000     0.0435753  
H166     H      0.177640000000     0.483740000000     0.972050000000     0.0612954  
H167     H      0.134040000000     0.502840000000     0.431900000000     0.0190885  
H168     H      0.059110000000     0.339210000000     0.409080000000     0.0438219  
H169     H      0.041420000000     0.398040000000     0.395430000000     0.0401111  
H170     H      0.127870000000     0.480830000000     0.989900000000     0.070258   
H171     H      0.221490000000     0.153320000000     0.324150000000     0.0752427  
H172     H      0.254370000000     0.222100000000     0.365540000000     0.0451111  
H173     H      0.330720000000     0.303180000000     0.361900000000     0.039553   
H174     H      0.355740000000     0.311110000000     0.305050000000     0.0424988  
H175     H      0.201680000000     0.219830000000     0.355520000000     0.049793   
H176     H      0.176910000000     0.163460000000     0.310930000000     0.0587609  
H177     H      0.229630000000     0.241960000000     0.297590000000     0.0193035  
H178     H      0.325620000000     0.348490000000     0.343590000000     0.0406437  
H179     H      0.305480000000     0.310420000000     0.290820000000     0.0358297  
H180     H      0.216400000000     0.165600000000     0.281040000000     0.0768974  
H181     H      0.405840000000     0.444330000000     0.293930000000     0.070214   
H182     H      0.420870000000     0.420120000000     0.351220000000     0.0425045  
H183     H      0.485960000000     0.406180000000     0.354350000000     0.0353623  
H184     H      0.542270000000     0.451660000000     0.314170000000     0.0386407  
H185     H      0.422330000000     0.466620000000     0.373260000000     0.0486046  
H186     H      0.394330000000     0.479230000000     0.321200000000     0.0607414  
H187     H      0.480170000000     0.522040000000     0.335880000000     0.0238787  
H188     H      0.536770000000     0.444740000000     0.376390000000     0.0403382  
H189     H      0.557430000000     0.503050000000     0.335710000000     0.038313   
H190     H      0.431520000000     0.504890000000     0.287300000000     0.0791927  
H191     H      0.448080000000     0.463350000000     0.048490000000     0.0753077  
H192     H      0.513480000000     0.473800000000     0.091390000000     0.0482187  
H193     H      0.609660000000     0.584400000000     0.119560000000     0.0286173  
H194     H      0.593980000000     0.551490000000     0.065610000000     0.0456085  
H195     H      0.473950000000     0.473840000000     0.120820000000     0.0420921  
H196     H      0.418600000000     0.468360000000     0.083300000000     0.0582788  
H197     H      0.484680000000     0.546630000000     0.094040000000     0.0201223  
H198     H      0.565600000000     0.599130000000     0.117040000000     0.038381   
H199     H      0.596520000000     0.605070000000     0.061720000000     0.0342717  
H200     H      0.430230000000     0.506040000000     0.049980000000     0.0741541  
H201     H      0.832260000000     0.291230000000     0.414640000000     0.0752193  
H202     H      0.807500000000     0.225130000000     0.453780000000     0.0482101  
H203     H      0.841070000000     0.164820000000     0.452300000000     0.0408261  
H204     H      0.918760000000     0.205060000000     0.429320000000     0.0400045  
H205     H      0.830520000000     0.267120000000     0.485600000000     0.0481252  
H206     H      0.867510000000     0.335920000000     0.442410000000     0.0544357  
H207     H      0.907060000000     0.299820000000     0.461800000000     0.0197818  
H208     H      0.882130000000     0.174160000000     0.483840000000     0.0410439  
H209     H      0.936820000000     0.248400000000     0.460380000000     0.0367163  
H210     H      0.892770000000     0.327020000000     0.406430000000     0.0729482  
H211     H      0.738190000000     0.158360000000     0.208670000000     0.0743694  
H212     H      0.812420000000     0.236700000000     0.247610000000     0.0521639  
H213     H      0.774070000000     0.111990000000     0.223680000000     0.0357269  
H214     H      0.824880000000     0.123100000000     0.178520000000     0.0404719  
H215     H      0.865980000000     0.243480000000     0.232540000000     0.0956661  
H216     H      0.746580000000     0.215080000000     0.211470000000     0.0625364  
H217     H      0.822630000000     0.247120000000     0.186100000000     0.0167049  
H218     H      0.826020000000     0.118960000000     0.240030000000     0.0381245  
H219     H      0.870840000000     0.172470000000     0.196980000000     0.0323488  
H220     H      0.742950000000     0.190030000000     0.171930000000     0.0741555  
H221     H      0.090660000000     0.369720000000     0.255880000000     0.0705929  
H222     H      0.177690000000     0.421220000000     0.292890000000     0.0428703  
H223     H      0.089660000000     0.310000000000     0.277320000000     0.0347172  
H224     H      0.109540000000     0.281540000000     0.228920000000     0.0336241  
H225     H      0.217310000000     0.406770000000     0.276280000000     0.0497549  
H226     H      0.126100000000     0.430260000000     0.252860000000     0.0616594  
H227     H      0.189330000000     0.424880000000     0.230290000000     0.0192938  
H228     H      0.115770000000     0.278450000000     0.290530000000     0.0401501  
H229     H      0.165730000000     0.300170000000     0.244020000000     0.0430113  
H230     H      0.107950000000     0.396200000000     0.216270000000     0.0736149  
H231     H      0.293520000000     0.430980000000     0.055800000000     0.0672305  
H232     H      0.292900000000     0.383370000000     0.003730000000     0.0382545  
H233     H      0.238470000000     0.299800000000     0.008590000000     0.0350576  
H234     H      0.169320000000     0.282820000000     0.038870000000     0.0415751  
H235     H      0.282520000000     0.416600000000     0.974420000000     0.0456785  
H236     H      0.299470000000     0.466470000000     0.021160000000     0.0546112  
H237     H      0.215950000000     0.406220000000     0.005650000000     0.0196727  
H238     H      0.189560000000     0.273040000000     0.981960000000     0.0404744  
H239     H      0.155490000000     0.313060000000     0.009450000000     0.0393769  
H240     H      0.257150000000     0.455910000000     0.050880000000     0.0736512  
H241     H      0.989430000000     0.254660000000     0.155410000000     0.0703756  
H242     H      0.968060000000     0.202930000000     0.087220000000     0.0496183  
H243     H      0.979210000000     0.314330000000     0.128850000000     0.0364615  
H244     H      0.056340000000     0.367250000000     0.113080000000     0.0396978  
H245     H      0.004950000000     0.249790000000     0.061810000000     0.0444319  
H246     H      0.987070000000     0.201380000000     0.146990000000     0.0626859  
H247     H      0.047370000000     0.237890000000     0.104750000000     0.0203867  
H248     H      0.976230000000     0.331900000000     0.088130000000     0.0412951  
H249     H      0.049580000000     0.342480000000     0.073340000000     0.0370663  
H250     H      0.038000000000     0.248090000000     0.163940000000     0.0714146  
H251     H      0.310560000000     0.494260000000     0.158090000000     0.0742444  
H252     H      0.343150000000     0.465020000000     0.205240000000     0.0444345  
H253     H      0.336800000000     0.384210000000     0.212690000000     0.0374784  
H254     H      0.313010000000     0.345730000000     0.160060000000     0.0425541  
H255     H      0.395870000000     0.510390000000     0.189320000000     0.0478355  
H256     H      0.365190000000     0.528570000000     0.139470000000     0.0567892  
H257     H      0.380880000000     0.467390000000     0.136590000000     0.0140709  
H258     H      0.382410000000     0.377580000000     0.196580000000     0.0407562  
H259     H      0.364190000000     0.387960000000     0.140540000000     0.0340671  
H260     H      0.321270000000     0.484160000000     0.115680000000     0.0709403  
H261     H      0.552130000000     0.106870000000     0.315790000000     0.0720869  
H262     H      0.504400000000     0.062310000000     0.367850000000     0.0446153  
H263     H      0.473120000000     0.971110000000     0.370320000000     0.0391814  
H264     H      0.525070000000     0.955400000000     0.339180000000     0.0386242  
H265     H      0.550760000000     0.096600000000     0.395300000000     0.0445156  
H266     H      0.589780000000     0.142780000000     0.347620000000     0.056615   
H267     H      0.601880000000     0.077650000000     0.365450000000     0.0152818  
H268     H      0.502320000000     0.953380000000     0.398050000000     0.0410983  
H269     H      0.571560000000     0.991140000000     0.365720000000     0.0338172  
H270     H      0.612230000000     0.122960000000     0.316460000000     0.0764181  
H271     H      0.436990000000     0.920140000000     0.073850000000     0.0768484  
H272     H      0.510890000000     0.959610000000     0.106660000000     0.0481525  
H273     H      0.569580000000     0.048540000000     0.103720000000     0.0391777  
H274     H      0.529090000000     0.090530000000     0.091440000000     0.0387138  
H275     H      0.475580000000     0.938330000000     0.142560000000     0.047093   
H276     H      0.398880000000     0.908060000000     0.107710000000     0.0606729  
H277     H      0.438750000000     0.983080000000     0.128830000000     0.0173984  
H278     H      0.571820000000     0.082430000000     0.138330000000     0.0423875  
H279     H      0.493050000000     0.065870000000     0.126950000000     0.0382876  
H280     H      0.399480000000     0.943930000000     0.075050000000     0.0731501  
H281     H      0.610700000000     0.165300000000     0.022090000000     0.0745484  
H282     H      0.643050000000     0.138970000000     0.070340000000     0.0428655  
H283     H      0.644160000000     0.063340000000     0.075300000000     0.0376277  
H284     H      0.638470000000     0.031060000000     0.020250000000     0.0433631  
H285     H      0.695070000000     0.189740000000     0.059540000000     0.0480746  
H286     H      0.665780000000     0.207370000000     0.007720000000     0.057711   
H287     H      0.693670000000     0.155300000000     0.004960000000     0.0189035  
H288     H      0.695800000000     0.063300000000     0.065510000000     0.0433146  
H289     H      0.689710000000     0.080870000000     0.007620000000     0.0390578  
H290     H      0.629490000000     0.162600000000     0.980420000000     0.0746537  
H291     H      0.178730000000     0.931870000000     0.323950000000     0.0761018  
H292     H      0.232200000000     0.947490000000     0.273440000000     0.0413219  
H293     H      0.286490000000     0.917610000000     0.275640000000     0.0347858  
H294     H      0.255680000000     0.846060000000     0.305680000000     0.0394568  
H295     H      0.184710000000     0.922740000000     0.245620000000     0.0463221  
H296     H      0.136050000000     0.914690000000     0.292450000000     0.0578415  
H297     H      0.149710000000     0.851380000000     0.276530000000     0.0199383  
H298     H      0.278810000000     0.872740000000     0.248360000000     0.0400263  
H299     H      0.208790000000     0.818310000000     0.277420000000     0.0407169  
H300     H      0.126630000000     0.876400000000     0.325200000000     0.0754265  
H301     H      0.229910000000     0.782400000000     0.482070000000     0.0740263  
H302     H      0.230050000000     0.830050000000     0.031310000000     0.0449182  
H303     H      0.170020000000     0.866790000000     0.030580000000     0.0397902  
H304     H      0.104140000000     0.816110000000     0.997100000000     0.0397919  
H305     H      0.210880000000     0.782090000000     0.058320000000     0.0460054  
H306     H      0.214610000000     0.737580000000     0.011410000000     0.0571067  
H307     H      0.143000000000     0.737050000000     0.024930000000     0.0168761  
H308     H      0.121150000000     0.836430000000     0.056460000000     0.0415958  
H309     H      0.092030000000     0.768880000000     0.023040000000     0.0343951  
H310     H      0.179620000000     0.726450000000     0.476010000000     0.075242   
H311     H      0.383720000000     0.042690000000     0.963910000000     0.0814578  
H312     H      0.350360000000     0.981080000000     0.420080000000     0.0454497  
H313     H      0.366620000000     0.912320000000     0.419420000000     0.039229   
H314     H      0.373240000000     0.888480000000     0.476130000000     0.0400833  
H315     H      0.295020000000     0.969490000000     0.433400000000     0.0495414  
H316     H      0.329010000000     0.026880000000     0.980930000000     0.0644809  
H317     H      0.308950000000     0.949190000000     0.988430000000     0.0172371  
H318     H      0.320310000000     0.856910000000     0.429810000000     0.0402044  
H319     H      0.319430000000     0.883180000000     0.486600000000     0.0335869  
H320     H      0.371210000000     0.026250000000     0.007020000000     0.0843216  
H321     H      0.760250000000     0.543370000000     0.414600000000     0.0759942  
H322     H      0.812780000000     0.589440000000     0.460210000000     0.0454494  
H323     H      0.867600000000     0.686200000000     0.455450000000     0.0413102  
H324     H      0.826270000000     0.714470000000     0.422420000000     0.0411744  
H325     H      0.764230000000     0.570940000000     0.486460000000     0.0480318  
H326     H      0.709130000000     0.528250000000     0.437020000000     0.0583497  
H327     H      0.731710000000     0.604480000000     0.450940000000     0.0171272  
H328     H      0.847490000000     0.715600000000     0.481160000000     0.040264   
H329     H      0.777310000000     0.686670000000     0.448890000000     0.0368396  
H330     H      0.718990000000     0.558170000000     0.398870000000     0.0748044  
H331     H      0.882980000000     0.577300000000     0.160020000000     0.0705456  
H332     H      0.910330000000     0.614130000000     0.218790000000     0.0428863  
H333     H      0.941400000000     0.697980000000     0.217470000000     0.0317386  
H334     H      0.904600000000     0.718450000000     0.176090000000     0.0401981  
H335     H      0.858250000000     0.578120000000     0.240530000000     0.0471177  
H336     H      0.845140000000     0.535710000000     0.189280000000     0.0573488  
H337     H      0.812770000000     0.590200000000     0.200010000000     0.0231522  
H338     H      0.911610000000     0.722120000000     0.237920000000     0.0399419  
H339     H      0.851580000000     0.691860000000     0.197600000000     0.0394004  
H340     H      0.821590000000     0.548640000000     0.154940000000     0.0787383  
H341     H      0.637780000000     0.643480000000     0.251450000000     0.0771933  
H342     H      0.659610000000     0.606610000000     0.297580000000     0.0468579  
H343     H      0.653270000000     0.525760000000     0.298860000000     0.036635   
H344     H      0.651610000000     0.500090000000     0.242150000000     0.0412344  
H345     H      0.714780000000     0.655330000000     0.290400000000     0.0505973  
H346     H      0.693690000000     0.681170000000     0.235820000000     0.0629986  
H347     H      0.715760000000     0.625580000000     0.234710000000     0.0199529  
H348     H      0.704050000000     0.523200000000     0.290400000000     0.0407354  
H349     H      0.706050000000     0.549150000000     0.233740000000     0.0374778  
H350     H      0.652970000000     0.637110000000     0.209750000000     0.0748473  
H351     H      0.062240000000     0.681750000000     0.406430000000     0.0784392  
H352     H      0.980050000000     0.671140000000     0.405850000000     0.0432338  
H353     H      0.986760000000     0.751800000000     0.405380000000     0.038794   
H354     H      0.044710000000     0.807220000000     0.366310000000     0.0393476  
H355     H      0.961070000000     0.638480000000     0.368640000000     0.0454716  
H356     H      0.032030000000     0.636060000000     0.377770000000     0.067024   
H357     H      0.027710000000     0.692730000000     0.338760000000     0.0187685  
H358     H      0.962600000000     0.765860000000     0.371210000000     0.0417011  
H359     H      0.021360000000     0.765570000000     0.334510000000     0.0368541  
H360     H      0.085530000000     0.682480000000     0.365830000000     0.078806   
H361     H      0.699400000000     0.084160000000     0.850430000000     0.0793397  
H362     H      0.705660000000     0.011700000000     0.846330000000     0.0459306  
H363     H      0.789840000000     0.020190000000     0.852120000000     0.038585   
H364     H      0.837220000000     0.081680000000     0.891330000000     0.0408935  
H365     H      0.668390000000     0.987410000000     0.880960000000     0.0505079  
H366     H      0.659850000000     0.055340000000     0.883220000000     0.0639719  
H367     H      0.719410000000     0.051360000000     0.915770000000     0.0191149  
H368     H      0.800420000000     0.998440000000     0.889270000000     0.0407109  
H369     H      0.793910000000     0.055650000000     0.921940000000     0.0360247  
H370     H      0.707140000000     0.110420000000     0.890880000000     0.0781669  
H371     H      0.900170000000     0.284040000000     0.709100000000     0.0711026  
H372     H      0.976090000000     0.352140000000     0.718460000000     0.0404835  
H373     H      0.869750000000     0.329010000000     0.724380000000     0.0332589  
H374     H      0.839160000000     0.310670000000     0.779640000000     0.0359699  
H375     H      0.990810000000     0.373730000000     0.758990000000     0.0503779  
H376     H      0.929970000000     0.266960000000     0.713100000000     0.0581806  
H377     H      0.956300000000     0.297980000000     0.769220000000     0.0189592  
H378     H      0.872340000000     0.378050000000     0.742630000000     0.0415975  
H379     H      0.888020000000     0.358890000000     0.796670000000     0.0406407  
H380     H      0.908840000000     0.238220000000     0.739620000000     0.0760224  
H381     H      0.052390000000     0.743040000000     0.654240000000     0.0780646  
H382     H      0.046780000000     0.664070000000     0.652170000000     0.045095   
H383     H      0.126630000000     0.665020000000     0.657600000000     0.0388294  
H384     H      0.178880000000     0.724030000000     0.696570000000     0.0412414  
H385     H      0.009630000000     0.643660000000     0.687180000000     0.0493726  
H386     H      0.008800000000     0.715030000000     0.684660000000     0.0621136  
H387     H      0.064180000000     0.706610000000     0.720830000000     0.0188203  
H388     H      0.135240000000     0.641200000000     0.694440000000     0.0416977  
H389     H      0.135620000000     0.701950000000     0.727480000000     0.0367451  
H390     H      0.057490000000     0.767810000000     0.695010000000     0.0776487  
H391     H      0.531750000000     0.736750000000     0.923660000000     0.0752221  
H392     H      0.542940000000     0.671150000000     0.900150000000     0.0449668  
H393     H      0.619360000000     0.670180000000     0.892970000000     0.0384125  
H394     H      0.676770000000     0.727690000000     0.928710000000     0.0427162  
H395     H      0.506620000000     0.640370000000     0.934110000000     0.0483932  
H396     H      0.505850000000     0.706520000000     0.960710000000     0.0578636  
H397     H      0.567250000000     0.692900000000     0.972720000000     0.0193868  
H398     H      0.634770000000     0.642860000000     0.924030000000     0.0441891  
H399     H      0.644000000000     0.699830000000     0.964730000000     0.0390575  
H400     H      0.557050000000     0.760200000000     0.963740000000     0.0747089  
H401     H      0.305350000000     0.087380000000     0.614280000000     0.0823371  
H402     H      0.335790000000     0.000500000000     0.644960000000     0.038715   
H403     H      0.240520000000     0.003730000000     0.595370000000     0.0383778  
H404     H      0.274460000000     0.022020000000     0.539800000000     0.0361944  
H405     H      0.346530000000     0.989170000000     0.604070000000     0.0489356  
H406     H      0.284990000000     0.050310000000     0.635280000000     0.0673611  
H407     H      0.381470000000     0.072400000000     0.611340000000     0.0209673  
H408     H      0.228550000000     0.953060000000     0.574230000000     0.0358808  
H409     H      0.302260000000     0.989960000000     0.547000000000     0.034468   
H410     H      0.321020000000     0.059920000000     0.655850000000     0.063654   
H411     H      0.375330000000     0.379040000000     0.979150000000     0.0791708  
H412     H      0.388560000000     0.310990000000     0.484110000000     0.0452845  
H413     H      0.478430000000     0.330360000000     0.484750000000     0.0395192  
H414     H      0.526170000000     0.402310000000     0.513580000000     0.0424435  
H415     H      0.359850000000     0.294230000000     0.522900000000     0.0496652  
H416     H      0.340870000000     0.353040000000     0.514830000000     0.060672   
H417     H      0.410130000000     0.368020000000     0.546750000000     0.0151089  
H418     H      0.497890000000     0.321440000000     0.523720000000     0.0408417  
H419     H      0.490100000000     0.382280000000     0.548920000000     0.0352062  
H420     H      0.382260000000     0.411610000000     0.516560000000     0.0717167  
H421     H      0.774620000000     0.867250000000     0.829670000000     0.0762605  
H422     H      0.732200000000     0.804850000000     0.785560000000     0.0428492  
H423     H      0.645960000000     0.751230000000     0.784740000000     0.0355851  
H424     H      0.607210000000     0.786740000000     0.811840000000     0.037089   
H425     H      0.757610000000     0.849320000000     0.755440000000     0.0472028  
H426     H      0.794890000000     0.909540000000     0.797970000000     0.0597714  
H427     H      0.717600000000     0.886400000000     0.780040000000     0.0209387  
H428     H      0.612060000000     0.760560000000     0.755060000000     0.0380224  
H429     H      0.628770000000     0.831870000000     0.781970000000     0.0364879  
H430     H      0.763260000000     0.914420000000     0.831200000000     0.0766316  
H431     H      0.596230000000     0.856700000000     0.587400000000     0.0718366  
H432     H      0.633860000000     0.904060000000     0.532150000000     0.0424213  
H433     H      0.719430000000     0.941170000000     0.533810000000     0.0365932  
H434     H      0.746600000000     0.895890000000     0.561940000000     0.0419378  
H435     H      0.602020000000     0.857780000000     0.504120000000     0.0442703  
H436     H      0.558320000000     0.825790000000     0.554100000000     0.0563977  
H437     H      0.621580000000     0.808110000000     0.534500000000     0.0202038  
H438     H      0.748040000000     0.923570000000     0.505250000000     0.0404285  
H439     H      0.717760000000     0.850390000000     0.533340000000     0.0407362  
H440     H      0.574390000000     0.796130000000     0.581740000000     0.0753909  
H441     H      0.640850000000     0.682090000000     0.627800000000     0.0769754  
H442     H      0.701570000000     0.687270000000     0.587430000000     0.0449565  
H443     H      0.776110000000     0.766350000000     0.576260000000     0.0384842  
H444     H      0.800060000000     0.814930000000     0.625060000000     0.0417017  
H445     H      0.707600000000     0.646820000000     0.612230000000     0.0490015  
H446     H      0.649930000000     0.643420000000     0.652490000000     0.0622444  
H447     H      0.729830000000     0.697400000000     0.659770000000     0.0169881  
H448     H      0.829090000000     0.774480000000     0.592190000000     0.0426178  
H449     H      0.802400000000     0.771660000000     0.648900000000     0.0374937  
H450     H      0.655680000000     0.692950000000     0.671340000000     0.0769329  
H451     H      0.564780000000     0.815730000000     0.715030000000     0.0737541  
H452     H      0.605560000000     0.890980000000     0.750650000000     0.043186   
H453     H      0.677210000000     0.964510000000     0.737780000000     0.0386457  
H454     H      0.690380000000     0.967080000000     0.678400000000     0.0428977  
H455     H      0.551310000000     0.888160000000     0.748370000000     0.0479951  
H456     H      0.515940000000     0.823010000000     0.712140000000     0.0576712  
H457     H      0.561820000000     0.898520000000     0.686720000000     0.0218731  
H458     H      0.672940000000     0.010950000000     0.720390000000     0.0419611  
H459     H      0.638950000000     0.967900000000     0.670240000000     0.037987   
H460     H      0.541790000000     0.819520000000     0.675130000000     0.074158   
H461     H      0.941220000000     0.561610000000     0.887030000000     0.0675532  
H462     H      0.977550000000     0.580110000000     0.828540000000     0.0423904  
H463     H      0.061420000000     0.606110000000     0.827710000000     0.0315284  
H464     H      0.077200000000     0.576600000000     0.875060000000     0.0380408  
H465     H      0.937970000000     0.527010000000     0.809510000000     0.0483743  
H466     H      0.896570000000     0.520440000000     0.860930000000     0.0589895  
H467     H      0.946630000000     0.483330000000     0.852880000000     0.0255649  
H468     H      0.080280000000     0.569070000000     0.812150000000     0.0405144  
H469     H      0.053150000000     0.520870000000     0.858390000000     0.0387632  
H470     H      0.910890000000     0.502110000000     0.897660000000     0.0764103  
H471     H      0.098640000000     0.514220000000     0.549350000000     0.0756311  
H472     H      0.055830000000     0.529480000000     0.593910000000     0.0480141  
H473     H      0.959380000000     0.493880000000     0.590780000000     0.0398329  
H474     H      0.926520000000     0.423480000000     0.559010000000     0.0368842  
H475     H      0.072330000000     0.499550000000     0.621910000000     0.0486541  
H476     H      0.110000000000     0.477370000000     0.574060000000     0.0594529  
H477     H      0.032470000000     0.430410000000     0.589760000000     0.015505   
H478     H      0.927890000000     0.446460000000     0.617860000000     0.039295   
H479     H      0.950310000000     0.399340000000     0.586720000000     0.036623   
H480     H      0.077900000000     0.455760000000     0.536820000000     0.0700084  
H481     H      0.867170000000     0.458560000000     0.012400000000     0.074092   
H482     H      0.897410000000     0.518110000000     0.560100000000     0.0422071  
H483     H      0.972550000000     0.594900000000     0.559880000000     0.03914    
H484     H      0.995420000000     0.620640000000     0.502780000000     0.0419746  
H485     H      0.844510000000     0.517720000000     0.554840000000     0.0474957  
H486     H      0.819540000000     0.467090000000     0.006310000000     0.0573284  
H487     H      0.868580000000     0.548260000000     0.997950000000     0.0184364  
H488     H      0.970470000000     0.645880000000     0.552260000000     0.0422833  
H489     H      0.943230000000     0.620550000000     0.495860000000     0.0376518  
H490     H      0.856780000000     0.476690000000     0.972530000000     0.0736864  
H491     H      0.459680000000     0.216460000000     0.871020000000     0.0767653  
H492     H      0.421710000000     0.216680000000     0.924420000000     0.0460687  
H493     H      0.325200000000     0.179730000000     0.927070000000     0.0408973  
H494     H      0.290250000000     0.119030000000     0.886680000000     0.0378897  
H495     H      0.440400000000     0.180730000000     0.942590000000     0.0470462  
H496     H      0.477100000000     0.178880000000     0.888090000000     0.0586704  
H497     H      0.400040000000     0.122170000000     0.902150000000     0.0158878  
H498     H      0.295950000000     0.125820000000     0.947810000000     0.0394591  
H499     H      0.316400000000     0.089270000000     0.904970000000     0.0355343  
H500     H      0.443630000000     0.162350000000     0.851340000000     0.0751478  
H501     H      0.443010000000     0.283340000000     0.709520000000     0.0760871  
H502     H      0.443890000000     0.220740000000     0.674920000000     0.0470219  
H503     H      0.380420000000     0.137730000000     0.676370000000     0.0432853  
H504     H      0.303220000000     0.126720000000     0.687080000000     0.0387824  
H505     H      0.446080000000     0.254800000000     0.640020000000     0.0421057  
H506     H      0.432650000000     0.311600000000     0.676440000000     0.0606655  
H507     H      0.370960000000     0.244500000000     0.654940000000     0.0199236  
H508     H      0.343260000000     0.109830000000     0.641920000000     0.0822782  
H509     H      0.310470000000     0.164030000000     0.653640000000     0.0413416  
H510     H      0.391700000000     0.288160000000     0.709030000000     0.0765587  
H511     H      0.391670000000     0.982840000000     0.744350000000     0.0775897  
H512     H      0.405200000000     0.046450000000     0.784910000000     0.0459981  
H513     H      0.484760000000     0.124550000000     0.792350000000     0.0330534  
H514     H      0.528830000000     0.144100000000     0.740930000000     0.0401995  
H515     H      0.361450000000     0.049300000000     0.761710000000     0.0495154  
H516     H      0.356730000000     0.993460000000     0.716970000000     0.0633236  
H517     H      0.410060000000     0.072330000000     0.712450000000     0.0160085  
H518     H      0.489150000000     0.174600000000     0.774070000000     0.0395504  
H519     H      0.482210000000     0.142440000000     0.718720000000     0.0368263  
H520     H      0.408480000000     0.998270000000     0.701540000000     0.0770636  
H521     H      0.127650000000     0.429190000000     0.479530000000     0.0724594  
H522     H      0.180380000000     0.468830000000     0.913170000000     0.0470218  
H523     H      0.076200000000     0.360170000000     0.949840000000     0.0384194  
H524     H      0.014160000000     0.372370000000     0.933460000000     0.0426575  
H525     H      0.134130000000     0.457750000000     0.886490000000     0.0435654  
H526     H      0.177640000000     0.483740000000     0.472050000000     0.0613148  
H527     H      0.134040000000     0.502840000000     0.931910000000     0.019095   
H528     H      0.059110000000     0.339210000000     0.909080000000     0.0438242  
H529     H      0.041420000000     0.398050000000     0.895420000000     0.0400708  
H530     H      0.127870000000     0.480830000000     0.489900000000     0.0702828  
H531     H      0.221490000000     0.153320000000     0.824150000000     0.0752475  
H532     H      0.254370000000     0.222100000000     0.865540000000     0.0451156  
H533     H      0.330720000000     0.303180000000     0.861900000000     0.0395592  
H534     H      0.355740000000     0.311110000000     0.805060000000     0.042498   
H535     H      0.201680000000     0.219830000000     0.855520000000     0.0497905  
H536     H      0.176910000000     0.163460000000     0.810930000000     0.0587605  
H537     H      0.229630000000     0.241960000000     0.797590000000     0.0192956  
H538     H      0.325620000000     0.348480000000     0.843590000000     0.0406494  
H539     H      0.305480000000     0.310420000000     0.790820000000     0.035824   
H540     H      0.216400000000     0.165600000000     0.781040000000     0.0768925  
H541     H      0.405840000000     0.444320000000     0.793930000000     0.0702116  
H542     H      0.420860000000     0.420120000000     0.851230000000     0.0425001  
H543     H      0.485970000000     0.406190000000     0.854350000000     0.0353624  
H544     H      0.542270000000     0.451660000000     0.814170000000     0.0386467  
H545     H      0.422330000000     0.466620000000     0.873260000000     0.048598   
H546     H      0.394330000000     0.479230000000     0.821190000000     0.0607417  
H547     H      0.480170000000     0.522040000000     0.835880000000     0.0238673  
H548     H      0.536770000000     0.444730000000     0.876390000000     0.0403256  
H549     H      0.557430000000     0.503050000000     0.835700000000     0.0383265  
H550     H      0.431530000000     0.504890000000     0.787300000000     0.0791695  
H551     H      0.448080000000     0.463350000000     0.548490000000     0.0752896  
H552     H      0.513480000000     0.473810000000     0.591380000000     0.0482197  
H553     H      0.609660000000     0.584400000000     0.619560000000     0.0286125  
H554     H      0.593980000000     0.551490000000     0.565610000000     0.0456026  
H555     H      0.473950000000     0.473840000000     0.620820000000     0.0420952  
H556     H      0.418600000000     0.468350000000     0.583300000000     0.0582652  
H557     H      0.484680000000     0.546630000000     0.594030000000     0.0201131  
H558     H      0.565600000000     0.599130000000     0.617040000000     0.0383797  
H559     H      0.596520000000     0.605070000000     0.561720000000     0.0342547  
H560     H      0.430230000000     0.506040000000     0.549980000000     0.0741378  
H561     H      0.832260000000     0.291230000000     0.914640000000     0.0752136  
H562     H      0.807500000000     0.225130000000     0.953780000000     0.0481977  
H563     H      0.841070000000     0.164820000000     0.952300000000     0.0408199  
H564     H      0.918760000000     0.205060000000     0.929320000000     0.0399985  
H565     H      0.830520000000     0.267120000000     0.985600000000     0.0480943  
H566     H      0.867510000000     0.335920000000     0.942410000000     0.054418   
H567     H      0.907060000000     0.299820000000     0.961800000000     0.0197683  
H568     H      0.882130000000     0.174160000000     0.983840000000     0.041021   
H569     H      0.936820000000     0.248400000000     0.960380000000     0.0366934  
H570     H      0.892770000000     0.327020000000     0.906430000000     0.0729423  
H571     H      0.738190000000     0.158360000000     0.708670000000     0.0743532  
H572     H      0.812420000000     0.236700000000     0.747610000000     0.0521665  
H573     H      0.774070000000     0.111990000000     0.723680000000     0.0357286  
H574     H      0.824880000000     0.123100000000     0.678530000000     0.0404678  
H575     H      0.865980000000     0.243480000000     0.732540000000     0.0956668  
H576     H      0.746580000000     0.215080000000     0.711470000000     0.0624946  
H577     H      0.822630000000     0.247120000000     0.686100000000     0.0166977  
H578     H      0.826020000000     0.118960000000     0.740030000000     0.0381241  
H579     H      0.870840000000     0.172470000000     0.696980000000     0.03235    
H580     H      0.742950000000     0.190030000000     0.671930000000     0.0741173  
H581     H      0.090660000000     0.369710000000     0.755880000000     0.0705711  
H582     H      0.177690000000     0.421220000000     0.792890000000     0.0428669  
H583     H      0.089660000000     0.310000000000     0.777320000000     0.034701   
H584     H      0.109540000000     0.281540000000     0.728920000000     0.0336247  
H585     H      0.217310000000     0.406770000000     0.776280000000     0.0497639  
H586     H      0.126100000000     0.430260000000     0.752860000000     0.0616502  
H587     H      0.189330000000     0.424880000000     0.730290000000     0.0192983  
H588     H      0.115770000000     0.278450000000     0.790530000000     0.0401396  
H589     H      0.165730000000     0.300170000000     0.744020000000     0.0430106  
H590     H      0.107950000000     0.396200000000     0.716270000000     0.0736061  
H591     H      0.293520000000     0.430980000000     0.555790000000     0.0672496  
H592     H      0.292900000000     0.383370000000     0.503730000000     0.0382031  
H593     H      0.238470000000     0.299800000000     0.508590000000     0.0349914  
H594     H      0.169320000000     0.282820000000     0.538880000000     0.041574   
H595     H      0.282520000000     0.416590000000     0.474420000000     0.0456856  
H596     H      0.299470000000     0.466470000000     0.521160000000     0.0546333  
H597     H      0.215950000000     0.406220000000     0.505650000000     0.0196565  
H598     H      0.189560000000     0.273040000000     0.481960000000     0.0404669  
H599     H      0.155490000000     0.313060000000     0.509450000000     0.039362   
H600     H      0.257150000000     0.455910000000     0.550880000000     0.0736914  
H601     H      0.989430000000     0.254660000000     0.655410000000     0.0703769  
H602     H      0.968060000000     0.202930000000     0.587220000000     0.0496135  
H603     H      0.979210000000     0.314330000000     0.628850000000     0.0364578  
H604     H      0.056340000000     0.367250000000     0.613080000000     0.0397032  
H605     H      0.004950000000     0.249790000000     0.561810000000     0.0444207  
H606     H      0.987070000000     0.201380000000     0.646990000000     0.062683   
H607     H      0.047370000000     0.237890000000     0.604750000000     0.0203786  
H608     H      0.976230000000     0.331900000000     0.588130000000     0.041293   
H609     H      0.049580000000     0.342480000000     0.573340000000     0.0370589  
H610     H      0.038000000000     0.248090000000     0.663940000000     0.0714178  
H611     H      0.310560000000     0.494260000000     0.658090000000     0.0742474  
H612     H      0.343150000000     0.465020000000     0.705240000000     0.0444389  
H613     H      0.336800000000     0.384210000000     0.712690000000     0.0374656  
H614     H      0.313010000000     0.345730000000     0.660060000000     0.0425652  
H615     H      0.395870000000     0.510390000000     0.689320000000     0.0478388  
H616     H      0.365190000000     0.528570000000     0.639470000000     0.0567904  
H617     H      0.380880000000     0.467400000000     0.636590000000     0.0140544  
H618     H      0.382410000000     0.377570000000     0.696580000000     0.0407341  
H619     H      0.364190000000     0.387960000000     0.640540000000     0.0340812  
H620     H      0.321270000000     0.484160000000     0.615680000000     0.0709409  
H621     H      0.552130000000     0.106870000000     0.815790000000     0.0721217  
H622     H      0.504400000000     0.062310000000     0.867850000000     0.0446142  
H623     H      0.473120000000     0.971110000000     0.870320000000     0.0391545  
H624     H      0.525070000000     0.955400000000     0.839180000000     0.0386344  
H625     H      0.550770000000     0.096600000000     0.895300000000     0.044505   
H626     H      0.589780000000     0.142780000000     0.847620000000     0.0566251  
H627     H      0.601880000000     0.077650000000     0.865460000000     0.0152797  
H628     H      0.502320000000     0.953380000000     0.898050000000     0.0410744  
H629     H      0.571560000000     0.991140000000     0.865710000000     0.0338304  
H630     H      0.612230000000     0.122960000000     0.816460000000     0.0763941  
H631     H      0.436990000000     0.920140000000     0.573850000000     0.0768427  
H632     H      0.510890000000     0.959600000000     0.606660000000     0.0481012  
H633     H      0.569580000000     0.048540000000     0.603720000000     0.039171   
H634     H      0.529080000000     0.090530000000     0.591440000000     0.0387174  
H635     H      0.475580000000     0.938330000000     0.642560000000     0.0470537  
H636     H      0.398880000000     0.908060000000     0.607710000000     0.0606656  
H637     H      0.438750000000     0.983080000000     0.628830000000     0.017411   
H638     H      0.571820000000     0.082430000000     0.638330000000     0.0423837  
H639     H      0.493050000000     0.065870000000     0.626940000000     0.0382989  
H640     H      0.399480000000     0.943930000000     0.575050000000     0.073147   
H641     H      0.610700000000     0.165300000000     0.522090000000     0.074556   
H642     H      0.643050000000     0.138970000000     0.570340000000     0.0428696  
H643     H      0.644160000000     0.063340000000     0.575300000000     0.037627   
H644     H      0.638470000000     0.031060000000     0.520250000000     0.0433522  
H645     H      0.695070000000     0.189740000000     0.559540000000     0.0480722  
H646     H      0.665780000000     0.207370000000     0.507720000000     0.0577127  
H647     H      0.693670000000     0.155300000000     0.504960000000     0.0188877  
H648     H      0.695800000000     0.063300000000     0.565510000000     0.0433124  
H649     H      0.689710000000     0.080870000000     0.507620000000     0.0390431  
H650     H      0.629490000000     0.162600000000     0.480420000000     0.0747157  
H651     H      0.178730000000     0.931860000000     0.823950000000     0.0761574  
H652     H      0.232200000000     0.947490000000     0.773440000000     0.0413201  
H653     H      0.286490000000     0.917610000000     0.775640000000     0.0347762  
H654     H      0.255680000000     0.846060000000     0.805680000000     0.0394658  
H655     H      0.184710000000     0.922740000000     0.745620000000     0.0463149  
H656     H      0.136060000000     0.914690000000     0.792450000000     0.0578966  
H657     H      0.149710000000     0.851380000000     0.776530000000     0.019934   
H658     H      0.278810000000     0.872730000000     0.748350000000     0.0400117  
H659     H      0.208790000000     0.818310000000     0.777420000000     0.0407191  
H660     H      0.126630000000     0.876400000000     0.825200000000     0.0754571  
H661     H      0.229910000000     0.782400000000     0.982070000000     0.0740601  
H662     H      0.230050000000     0.830050000000     0.531310000000     0.0448787  
H663     H      0.170020000000     0.866790000000     0.530580000000     0.0397601  
H664     H      0.104140000000     0.816110000000     0.497100000000     0.0398774  
H665     H      0.210880000000     0.782090000000     0.558320000000     0.0459915  
H666     H      0.214610000000     0.737570000000     0.511410000000     0.0569978  
H667     H      0.143000000000     0.737050000000     0.524930000000     0.0169008  
H668     H      0.121150000000     0.836430000000     0.556460000000     0.0415756  
H669     H      0.092030000000     0.768890000000     0.523040000000     0.0344265  
H670     H      0.179620000000     0.726450000000     0.976010000000     0.0752759  
H671     H      0.383720000000     0.042690000000     0.463920000000     0.0814817  
H672     H      0.350360000000     0.981080000000     0.920080000000     0.045448   
H673     H      0.366620000000     0.912330000000     0.919420000000     0.0392305  
H674     H      0.373240000000     0.888480000000     0.976140000000     0.0400722  
H675     H      0.295020000000     0.969490000000     0.933400000000     0.0495448  
H676     H      0.329010000000     0.026880000000     0.480930000000     0.0644896  
H677     H      0.308950000000     0.949190000000     0.488420000000     0.0172593  
H678     H      0.320300000000     0.856910000000     0.929810000000     0.0402042  
H679     H      0.319430000000     0.883180000000     0.986600000000     0.0335741  
H680     H      0.371220000000     0.026250000000     0.507020000000     0.0842611  
H681     H      0.760250000000     0.543370000000     0.914600000000     0.0759456  
H682     H      0.812790000000     0.589440000000     0.960210000000     0.0454212  
H683     H      0.867600000000     0.686200000000     0.955450000000     0.041303   
H684     H      0.826270000000     0.714470000000     0.922420000000     0.0411701  
H685     H      0.764230000000     0.570940000000     0.986460000000     0.0479973  
H686     H      0.709130000000     0.528250000000     0.937020000000     0.0583147  
H687     H      0.731720000000     0.604480000000     0.950940000000     0.0171011  
H688     H      0.847490000000     0.715600000000     0.981160000000     0.0402507  
H689     H      0.777310000000     0.686670000000     0.948880000000     0.0368441  
H690     H      0.718990000000     0.558170000000     0.898870000000     0.0748008  
H691     H      0.882980000000     0.577300000000     0.660010000000     0.0705191  
H692     H      0.910330000000     0.614130000000     0.718790000000     0.0428907  
H693     H      0.941400000000     0.697970000000     0.717470000000     0.031767   
H694     H      0.904600000000     0.718450000000     0.676090000000     0.04019    
H695     H      0.858250000000     0.578120000000     0.740530000000     0.047126   
H696     H      0.845130000000     0.535710000000     0.689280000000     0.0573487  
H697     H      0.812770000000     0.590200000000     0.700010000000     0.0231547  
H698     H      0.911620000000     0.722120000000     0.737920000000     0.0399727  
H699     H      0.851580000000     0.691860000000     0.697600000000     0.0393955  
H700     H      0.821590000000     0.548630000000     0.654940000000     0.0787138  
H701     H      0.637780000000     0.643480000000     0.751450000000     0.0771785  
H702     H      0.659620000000     0.606610000000     0.797580000000     0.0468662  
H703     H      0.653270000000     0.525760000000     0.798860000000     0.0366534  
H704     H      0.651610000000     0.500090000000     0.742160000000     0.0411956  
H705     H      0.714780000000     0.655330000000     0.790400000000     0.0506029  
H706     H      0.693690000000     0.681180000000     0.735820000000     0.0629614  
H707     H      0.715760000000     0.625580000000     0.734710000000     0.0199603  
H708     H      0.704050000000     0.523200000000     0.790410000000     0.0407675  
H709     H      0.706050000000     0.549150000000     0.733740000000     0.0374465  
H710     H      0.652970000000     0.637110000000     0.709750000000     0.0748306  
H711     H      0.062250000000     0.681750000000     0.906420000000     0.0784904  
H712     H      0.980050000000     0.671140000000     0.905850000000     0.0432277  
H713     H      0.986760000000     0.751800000000     0.905380000000     0.0387936  
H714     H      0.044720000000     0.807220000000     0.866310000000     0.0393568  
H715     H      0.961070000000     0.638480000000     0.868640000000     0.045465   
H716     H      0.032030000000     0.636060000000     0.877770000000     0.0670457  
H717     H      0.027710000000     0.692730000000     0.838760000000     0.0187638  
H718     H      0.962600000000     0.765850000000     0.871210000000     0.0417114  
H719     H      0.021360000000     0.765570000000     0.834510000000     0.036857   
H720     H      0.085530000000     0.682480000000     0.865830000000     0.0788197  
N1       N      0.774400000000     0.082720000000     0.382280000000    -0.182429   
N2       N      0.732130000000     0.987500000000     0.383100000000    -0.168295   
N3       N      0.899800000000     0.305790000000     0.282320000000    -0.183856   
N4       N      0.936570000000     0.379270000000     0.238100000000    -0.165952   
N5       N      0.120210000000     0.732740000000     0.188040000000    -0.181476   
N6       N      0.069580000000     0.637060000000     0.189380000000    -0.168008   
N7       N      0.615400000000     0.731520000000     0.436150000000    -0.181997   
N8       N      0.568200000000     0.636720000000     0.428950000000    -0.1679     
N9       N      0.331750000000     0.051720000000     0.073130000000    -0.185822   
N10      N      0.278410000000     0.973220000000     0.112460000000    -0.169788   
N11      N      0.458520000000     0.394470000000     0.008260000000    -0.183143   
N12      N      0.426920000000     0.301880000000     0.020960000000    -0.16888    
N13      N      0.679040000000     0.835380000000     0.314800000000    -0.18203    
N14      N      0.684960000000     0.805240000000     0.251890000000    -0.169057   
N15      N      0.672750000000     0.857540000000     0.065540000000    -0.180259   
N16      N      0.674840000000     0.889340000000     0.001480000000    -0.168835   
N17      N      0.735040000000     0.754950000000     0.135990000000    -0.181724   
N18      N      0.769790000000     0.708040000000     0.099830000000    -0.16707    
N19      N      0.626940000000     0.903760000000     0.186820000000    -0.182544   
N20      N      0.609600000000     0.952230000000     0.234750000000    -0.168839   
N21      N      0.004270000000     0.536460000000     0.376920000000    -0.180946   
N22      N      0.008520000000     0.545470000000     0.307830000000    -0.166596   
N23      N      0.999530000000     0.452680000000     0.057170000000    -0.183503   
N24      N      0.001040000000     0.480180000000     0.122100000000    -0.166763   
N25      N      0.933870000000     0.554290000000     0.000770000000    -0.182264   
N26      N      0.905440000000     0.583770000000     0.055580000000    -0.168567   
N27      N      0.362990000000     0.149870000000     0.380340000000    -0.183527   
N28      N      0.369200000000     0.159560000000     0.448590000000    -0.168737   
N29      N      0.356300000000     0.197480000000     0.193300000000    -0.183212   
N30      N      0.395470000000     0.184090000000     0.137870000000    -0.167071   
N31      N      0.468470000000     0.077620000000     0.235400000000    -0.183421   
N32      N      0.423000000000     0.113200000000     0.270820000000    -0.169672   
N33      N      0.071410000000     0.439950000000     0.436830000000    -0.183541   
N34      N      0.123790000000     0.400320000000     0.413230000000    -0.168019   
N35      N      0.293060000000     0.245800000000     0.306590000000    -0.182262   
N36      N      0.262600000000     0.286210000000     0.352800000000    -0.167917   
N37      N      0.494630000000     0.476120000000     0.310530000000    -0.182451   
N38      N      0.481860000000     0.459430000000     0.377630000000    -0.169084   
N39      N      0.529930000000     0.547350000000     0.057530000000    -0.182958   
N40      N      0.542500000000     0.529130000000     0.124360000000    -0.170349   
N41      N      0.890550000000     0.249570000000     0.425710000000    -0.183271   
N42      N      0.850310000000     0.215590000000     0.486620000000    -0.167487   
N43      N      0.819370000000     0.183460000000     0.177380000000    -0.183657   
N44      N      0.814140000000     0.174580000000     0.247550000000    -0.165569   
N45      N      0.155660000000     0.352750000000     0.225460000000    -0.183968   
N46      N      0.157130000000     0.350950000000     0.294950000000    -0.167837   
N47      N      0.212280000000     0.356400000000     0.038930000000    -0.182385   
N48      N      0.234170000000     0.344810000000     0.974950000000    -0.170171   
N49      N      0.057860000000     0.304910000000     0.111420000000    -0.184006   
N50      N      0.963670000000     0.264110000000     0.092640000000    -0.16779    
N51      N      0.318390000000     0.411380000000     0.152060000000    -0.182838   
N52      N      0.392610000000     0.445680000000     0.195830000000    -0.168542   
N53      N      0.551740000000     0.027640000000     0.334340000000    -0.182495   
N54      N      0.522430000000     0.024510000000     0.399360000000    -0.168151   
N55      N      0.481200000000     0.018590000000     0.088900000000    -0.183619   
N56      N      0.526420000000     0.009700000000     0.142920000000    -0.168316   
N57      N      0.634110000000     0.092380000000     0.014310000000    -0.182186   
N58      N      0.699450000000     0.128750000000     0.064590000000    -0.168305   
N59      N      0.204460000000     0.866010000000     0.308600000000    -0.18037    
N60      N      0.230330000000     0.896050000000     0.243450000000    -0.168654   
N61      N      0.150710000000     0.790180000000     0.993610000000    -0.181655   
N62      N      0.172640000000     0.816790000000     0.059870000000    -0.167076   
N63      N      0.371050000000     0.951450000000     0.477560000000    -0.183135   
N64      N      0.304580000000     0.911420000000     0.428650000000    -0.168578   
N65      N      0.788410000000     0.641050000000     0.420070000000    -0.18214    
N66      N      0.812410000000     0.642910000000     0.486250000000    -0.166944   
N67      N      0.866250000000     0.645260000000     0.174050000000    -0.180011   
N68      N      0.882260000000     0.649680000000     0.242230000000    -0.167946   
N69      N      0.652940000000     0.564520000000     0.239750000000    -0.182799   
N70      N      0.712190000000     0.590490000000     0.293410000000    -0.168738   
N71      N      0.052680000000     0.747710000000     0.372240000000    -0.181939   
N72      N      0.956850000000     0.699440000000     0.369950000000    -0.168935   
N73      N      0.774400000000     0.082720000000     0.882280000000    -0.182425   
N74      N      0.732130000000     0.987500000000     0.883100000000    -0.168306   
N75      N      0.899800000000     0.305790000000     0.782320000000    -0.183851   
N76      N      0.936570000000     0.379270000000     0.738100000000    -0.166002   
N77      N      0.120210000000     0.732750000000     0.688040000000    -0.181521   
N78      N      0.069580000000     0.637060000000     0.689380000000    -0.16803    
N79      N      0.615400000000     0.731530000000     0.936140000000    -0.182052   
N80      N      0.568200000000     0.636710000000     0.928950000000    -0.167911   
N81      N      0.331750000000     0.051720000000     0.573130000000    -0.185821   
N82      N      0.278410000000     0.973220000000     0.612460000000    -0.169889   
N83      N      0.458520000000     0.394460000000     0.508260000000    -0.183128   
N84      N      0.426920000000     0.301880000000     0.520960000000    -0.168871   
N85      N      0.679040000000     0.835380000000     0.814800000000    -0.182055   
N86      N      0.684960000000     0.805240000000     0.751890000000    -0.169097   
N87      N      0.672750000000     0.857540000000     0.565540000000    -0.18026    
N88      N      0.674840000000     0.889340000000     0.501480000000    -0.168891   
N89      N      0.735050000000     0.754950000000     0.635990000000    -0.181765   
N90      N      0.769790000000     0.708040000000     0.599830000000    -0.167091   
N91      N      0.626940000000     0.903760000000     0.686820000000    -0.18256    
N92      N      0.609600000000     0.952220000000     0.734750000000    -0.168839   
N93      N      0.004270000000     0.536460000000     0.876920000000    -0.180922   
N94      N      0.008520000000     0.545470000000     0.807830000000    -0.166638   
N95      N      0.999530000000     0.452680000000     0.557170000000    -0.183438   
N96      N      0.001040000000     0.480180000000     0.622100000000    -0.166785   
N97      N      0.933870000000     0.554290000000     0.500770000000    -0.182275   
N98      N      0.905440000000     0.583770000000     0.555580000000    -0.168558   
N99      N      0.363000000000     0.149870000000     0.880330000000    -0.183591   
N100     N      0.369200000000     0.159560000000     0.948590000000    -0.168737   
N101     N      0.356300000000     0.197480000000     0.693300000000    -0.183212   
N102     N      0.395470000000     0.184090000000     0.637870000000    -0.167066   
N103     N      0.468470000000     0.077620000000     0.735400000000    -0.183407   
N104     N      0.423000000000     0.113200000000     0.770820000000    -0.169666   
N105     N      0.071410000000     0.439940000000     0.936830000000    -0.183483   
N106     N      0.123790000000     0.400330000000     0.913230000000    -0.167978   
N107     N      0.293060000000     0.245800000000     0.806600000000    -0.182238   
N108     N      0.262600000000     0.286210000000     0.852800000000    -0.167912   
N109     N      0.494630000000     0.476130000000     0.810530000000    -0.182429   
N110     N      0.481860000000     0.459430000000     0.877630000000    -0.169084   
N111     N      0.529930000000     0.547340000000     0.557530000000    -0.182981   
N112     N      0.542500000000     0.529130000000     0.624370000000    -0.170424   
N113     N      0.890550000000     0.249570000000     0.925710000000    -0.183288   
N114     N      0.850310000000     0.215590000000     0.986620000000    -0.167585   
N115     N      0.819370000000     0.183460000000     0.677380000000    -0.183679   
N116     N      0.814140000000     0.174580000000     0.747550000000    -0.165566   
N117     N      0.155660000000     0.352750000000     0.725460000000    -0.183962   
N118     N      0.157130000000     0.350940000000     0.794940000000    -0.167779   
N119     N      0.212280000000     0.356400000000     0.538930000000    -0.182483   
N120     N      0.234170000000     0.344810000000     0.474950000000    -0.170166   
N121     N      0.057860000000     0.304910000000     0.611430000000    -0.184024   
N122     N      0.963670000000     0.264110000000     0.592640000000    -0.167796   
N123     N      0.318390000000     0.411390000000     0.652060000000    -0.182851   
N124     N      0.392610000000     0.445680000000     0.695830000000    -0.168545   
N125     N      0.551740000000     0.027640000000     0.834340000000    -0.182486   
N126     N      0.522430000000     0.024510000000     0.899360000000    -0.168171   
N127     N      0.481200000000     0.018590000000     0.588900000000    -0.183653   
N128     N      0.526420000000     0.009700000000     0.642920000000    -0.168346   
N129     N      0.634110000000     0.092380000000     0.514310000000    -0.182196   
N130     N      0.699450000000     0.128750000000     0.564590000000    -0.168305   
N131     N      0.204460000000     0.866010000000     0.808600000000    -0.180344   
N132     N      0.230330000000     0.896050000000     0.743450000000    -0.168686   
N133     N      0.150710000000     0.790180000000     0.493610000000    -0.181553   
N134     N      0.172640000000     0.816790000000     0.559870000000    -0.167056   
N135     N      0.371040000000     0.951450000000     0.977560000000    -0.183099   
N136     N      0.304580000000     0.911420000000     0.928660000000    -0.168535   
N137     N      0.788410000000     0.641040000000     0.920080000000    -0.182133   
N138     N      0.812410000000     0.642910000000     0.986250000000    -0.16699    
N139     N      0.866250000000     0.645260000000     0.674050000000    -0.180019   
N140     N      0.882260000000     0.649680000000     0.742230000000    -0.167886   
N141     N      0.652940000000     0.564520000000     0.739750000000    -0.182841   
N142     N      0.712190000000     0.590500000000     0.793410000000    -0.168653   
N143     N      0.052680000000     0.747710000000     0.872240000000    -0.181947   
N144     N      0.956850000000     0.699440000000     0.869950000000    -0.168939   
Ni1      Ni     0.829860000000     0.607470000000     0.334780000000     0.979393   
Ni2      Ni     0.839770000000     0.681320000000     0.327430000000     1.01205    
Ni3      Ni     0.187820000000     0.799860000000     0.396480000000     0.987081   
Ni4      Ni     0.169400000000     0.857740000000     0.406090000000     0.99841    
Ni5      Ni     0.503720000000     0.987780000000     0.996360000000     0.998831   
Ni6      Ni     0.502030000000     0.056680000000     0.992450000000     0.994875   
Ni7      Ni     0.182420000000     0.320180000000     0.135150000000     1.0085     
Ni8      Ni     0.192380000000     0.394310000000     0.130240000000     0.991581   
Ni9      Ni     0.832440000000     0.162850000000     0.079460000000     1.00599    
Ni10     Ni     0.829660000000     0.231250000000     0.083640000000     0.988802   
Ni11     Ni     0.521890000000     0.469500000000     0.214140000000     0.996102   
Ni12     Ni     0.523570000000     0.539670000000     0.221410000000     0.998719   
Ni13     Ni     0.228220000000     0.381930000000     0.380700000000     0.996188   
Ni14     Ni     0.163040000000     0.308710000000     0.388280000000     1.00996    
Ni15     Ni     0.392970000000     0.213060000000     0.290600000000     0.992895   
Ni16     Ni     0.322090000000     0.144440000000     0.285820000000     1.00828    
Ni17     Ni     0.036840000000     0.530250000000     0.973310000000     0.992155   
Ni18     Ni     0.966830000000     0.462730000000     0.962110000000     0.991683   
Ni19     Ni     0.717310000000     0.862250000000     0.160000000000     0.99574    
Ni20     Ni     0.643170000000     0.797590000000     0.156680000000     0.992052   
Ni21     Ni     0.871740000000     0.681260000000     0.077150000000     0.995627   
Ni22     Ni     0.804450000000     0.609440000000     0.083640000000     0.989757   
Ni23     Ni     0.574560000000     0.051940000000     0.235710000000     0.996015   
Ni24     Ni     0.506420000000     0.980650000000     0.241230000000     1.00158    
Ni25     Ni     0.343770000000     0.168970000000     0.045200000000     1.01618    
Ni26     Ni     0.419120000000     0.180690000000     0.042120000000     1.00121    
Ni27     Ni     0.475630000000     0.511750000000     0.966140000000     1.00557    
Ni28     Ni     0.547450000000     0.515200000000     0.964500000000     0.995986   
Ni29     Ni     0.169800000000     0.862250000000     0.152410000000     0.99821    
Ni30     Ni     0.231350000000     0.847340000000     0.151690000000     0.986451   
Ni31     Ni     0.967620000000     0.508110000000     0.212450000000     0.990377   
Ni32     Ni     0.038310000000     0.509710000000     0.218670000000     0.993505   
Ni33     Ni     0.812920000000     0.208130000000     0.342270000000     0.994807   
Ni34     Ni     0.874170000000     0.193800000000     0.334350000000     1.00821    
Ni35     Ni     0.637920000000     0.855500000000     0.405040000000     0.990833   
Ni36     Ni     0.711130000000     0.863030000000     0.412020000000     0.999533   
Ni37     Ni     0.829860000000     0.607470000000     0.834780000000     0.979525   
Ni38     Ni     0.839770000000     0.681320000000     0.827430000000     1.01212    
Ni39     Ni     0.187820000000     0.799850000000     0.896480000000     0.98692    
Ni40     Ni     0.169400000000     0.857730000000     0.906090000000     0.998509   
Ni41     Ni     0.503720000000     0.987780000000     0.496360000000     0.99913    
Ni42     Ni     0.502030000000     0.056680000000     0.492450000000     0.994747   
Ni43     Ni     0.182420000000     0.320180000000     0.635150000000     1.0087     
Ni44     Ni     0.192380000000     0.394310000000     0.630240000000     0.991591   
Ni45     Ni     0.832440000000     0.162850000000     0.579460000000     1.00598    
Ni46     Ni     0.829660000000     0.231250000000     0.583640000000     0.988873   
Ni47     Ni     0.521890000000     0.469500000000     0.714140000000     0.996211   
Ni48     Ni     0.523570000000     0.539670000000     0.721410000000     0.998587   
Ni49     Ni     0.228220000000     0.381930000000     0.880700000000     0.995978   
Ni50     Ni     0.163040000000     0.308710000000     0.888280000000     1.00994    
Ni51     Ni     0.392970000000     0.213060000000     0.790600000000     0.992896   
Ni52     Ni     0.322090000000     0.144440000000     0.785820000000     1.00829    
Ni53     Ni     0.036840000000     0.530250000000     0.473310000000     0.99225    
Ni54     Ni     0.966830000000     0.462740000000     0.462110000000     0.99147    
Ni55     Ni     0.717310000000     0.862250000000     0.660000000000     0.995781   
Ni56     Ni     0.643170000000     0.797590000000     0.656680000000     0.99192    
Ni57     Ni     0.871740000000     0.681260000000     0.577150000000     0.995721   
Ni58     Ni     0.804440000000     0.609440000000     0.583650000000     0.989599   
Ni59     Ni     0.574550000000     0.051940000000     0.735710000000     0.99584    
Ni60     Ni     0.506420000000     0.980650000000     0.741230000000     1.00169    
Ni61     Ni     0.343770000000     0.168970000000     0.545200000000     1.01614    
Ni62     Ni     0.419120000000     0.180690000000     0.542110000000     1.00114    
Ni63     Ni     0.475630000000     0.511750000000     0.466140000000     1.00576    
Ni64     Ni     0.547450000000     0.515200000000     0.464500000000     0.995959   
Ni65     Ni     0.169800000000     0.862250000000     0.652410000000     0.99831    
Ni66     Ni     0.231350000000     0.847340000000     0.651690000000     0.986324   
Ni67     Ni     0.967620000000     0.508110000000     0.712450000000     0.990363   
Ni68     Ni     0.038310000000     0.509710000000     0.718670000000     0.993638   
Ni69     Ni     0.812920000000     0.208130000000     0.842270000000     0.994844   
Ni70     Ni     0.874170000000     0.193800000000     0.834350000000     1.00804    
Ni71     Ni     0.637920000000     0.855490000000     0.905040000000     0.990951   
Ni72     Ni     0.711130000000     0.863030000000     0.912010000000     0.999257   
O1       O      0.853640000000     0.612530000000     0.291170000000    -0.447541   
O2       O      0.805930000000     0.607260000000     0.377720000000    -0.450533   
O3       O      0.770090000000     0.583400000000     0.316530000000    -0.451997   
O4       O      0.890720000000     0.636520000000     0.352580000000    -0.448453   
O5       O      0.899070000000     0.705160000000     0.345730000000    -0.458271   
O6       O      0.779250000000     0.652380000000     0.309880000000    -0.454998   
O7       O      0.816110000000     0.676530000000     0.370770000000    -0.454906   
O8       O      0.863680000000     0.681890000000     0.284610000000    -0.451965   
O9       O      0.173260000000     0.782570000000     0.441640000000    -0.45421    
O10      O      0.201820000000     0.821430000000     0.352000000000    -0.448892   
O11      O      0.248810000000     0.842520000000     0.409390000000    -0.45413    
O12      O      0.125100000000     0.760700000000     0.384210000000    -0.452433   
O13      O      0.108650000000     0.815210000000     0.393200000000    -0.458658   
O14      O      0.231890000000     0.896960000000     0.418110000000    -0.452165   
O15      O      0.183890000000     0.874980000000     0.360930000000    -0.453617   
O16      O      0.155290000000     0.836090000000     0.450580000000    -0.449802   
O17      O      0.514640000000     0.991920000000     0.450000000000    -0.452045   
O18      O      0.491240000000     0.987170000000     0.042220000000    -0.457891   
O19      O      0.439830000000     0.956250000000     0.487910000000    -0.457986   
O20      O      0.568070000000     0.024430000000     0.004890000000    -0.451104   
O21      O      0.566030000000     0.088340000000     0.000930000000    -0.458575   
O22      O      0.437620000000     0.020160000000     0.484540000000    -0.453574   
O23      O      0.491300000000     0.052520000000     0.038810000000    -0.45227    
O24      O      0.513730000000     0.056740000000     0.446310000000    -0.451619   
O25      O      0.169300000000     0.321480000000     0.180390000000    -0.459222   
O26      O      0.194950000000     0.322680000000     0.089390000000    -0.459282   
O27      O      0.246780000000     0.348830000000     0.144620000000    -0.449705   
O28      O      0.119340000000     0.297250000000     0.125450000000    -0.455741   
O29      O      0.129080000000     0.366570000000     0.119310000000    -0.454251   
O30      O      0.254910000000     0.417480000000     0.141220000000    -0.460821   
O31      O      0.206720000000     0.392850000000     0.084820000000    -0.456089   
O32      O      0.177320000000     0.390360000000     0.176030000000    -0.45358    
O33      O      0.840420000000     0.173330000000     0.033020000000    -0.450655   
O34      O      0.825870000000     0.158020000000     0.126400000000    -0.451367   
O35      O      0.767550000000     0.131360000000     0.074010000000    -0.453019   
O36      O      0.896590000000     0.198180000000     0.084600000000    -0.458975   
O37      O      0.894780000000     0.262310000000     0.090390000000    -0.446732   
O38      O      0.765180000000     0.195470000000     0.076330000000    -0.45054    
O39      O      0.820490000000     0.220450000000     0.129910000000    -0.453091   
O40      O      0.838630000000     0.237680000000     0.037120000000    -0.451235   
O41      O      0.531540000000     0.483860000000     0.168440000000    -0.453488   
O42      O      0.511850000000     0.459690000000     0.260200000000    -0.45603    
O43      O      0.457310000000     0.441820000000     0.206790000000    -0.44926    
O44      O      0.586460000000     0.502090000000     0.222320000000    -0.450971   
O45      O      0.586070000000     0.565720000000     0.233500000000    -0.459547   
O46      O      0.460790000000     0.508840000000     0.208640000000    -0.455457   
O47      O      0.505590000000     0.521490000000     0.265980000000    -0.456277   
O48      O      0.541600000000     0.553130000000     0.176340000000    -0.454876   
O49      O      0.207510000000     0.381370000000     0.337270000000    -0.457676   
O50      O      0.244730000000     0.378900000000     0.424910000000    -0.45805    
O51      O      0.260130000000     0.351140000000     0.366000000000    -0.445771   
O52      O      0.191330000000     0.406800000000     0.395540000000    -0.449706   
O53      O      0.131210000000     0.338150000000     0.403540000000    -0.456893   
O54      O      0.198260000000     0.283450000000     0.372580000000    -0.460494   
O55      O      0.184950000000     0.309780000000     0.431970000000    -0.452066   
O56      O      0.146210000000     0.313070000000     0.343890000000    -0.451124   
O57      O      0.392740000000     0.198060000000     0.336100000000    -0.453883   
O58      O      0.388660000000     0.222180000000     0.244510000000    -0.454582   
O59      O      0.359280000000     0.243300000000     0.300120000000    -0.452471   
O60      O      0.422160000000     0.178950000000     0.280820000000    -0.458397   
O61      O      0.356130000000     0.114250000000     0.277470000000    -0.453235   
O62      O      0.293310000000     0.179520000000     0.294650000000    -0.458856   
O63      O      0.323530000000     0.157100000000     0.240140000000    -0.460063   
O64      O      0.325020000000     0.135470000000     0.331700000000    -0.459463   
O65      O      0.035440000000     0.548270000000     0.428660000000    -0.449086   
O66      O      0.034060000000     0.506630000000     0.016770000000    -0.45186    
O67      O      0.068000000000     0.500000000000     0.458740000000    -0.459554   
O68      O      0.001080000000     0.556610000000     0.987510000000    -0.452629   
O69      O      0.936040000000     0.493210000000     0.977950000000    -0.458117   
O70      O      0.003010000000     0.436920000000     0.447150000000    -0.448378   
O71      O      0.968450000000     0.443770000000     0.006070000000    -0.454094   
O72      O      0.968830000000     0.486060000000     0.418960000000    -0.45448    
O73      O      0.711480000000     0.872990000000     0.114490000000    -0.450917   
O74      O      0.718100000000     0.846850000000     0.205300000000    -0.450301   
O75      O      0.741020000000     0.823750000000     0.147820000000    -0.453706   
O76      O      0.688790000000     0.896760000000     0.172200000000    -0.451728   
O77      O      0.619860000000     0.836130000000     0.169250000000    -0.460506   
O78      O      0.672000000000     0.763210000000     0.144830000000    -0.45428    
O79      O      0.648340000000     0.786800000000     0.202180000000    -0.455435   
O80      O      0.641930000000     0.812960000000     0.111500000000    -0.454396   
O81      O      0.882820000000     0.679170000000     0.123240000000    -0.449816   
O82      O      0.855790000000     0.678800000000     0.031620000000    -0.448557   
O83      O      0.836120000000     0.708980000000     0.087030000000    -0.452948   
O84      O      0.903200000000     0.648770000000     0.067290000000    -0.450536   
O85      O      0.840060000000     0.581820000000     0.072940000000    -0.453141   
O86      O      0.773020000000     0.642240000000     0.093600000000    -0.445471   
O87      O      0.793290000000     0.611330000000     0.037680000000    -0.449484   
O88      O      0.820670000000     0.611470000000     0.129040000000    -0.451822   
O89      O      0.577860000000     0.054990000000     0.282610000000    -0.456751   
O90      O      0.566380000000     0.045250000000     0.189300000000    -0.454269   
O91      O      0.537210000000     0.079520000000     0.236340000000    -0.455411   
O92      O      0.607130000000     0.018820000000     0.234870000000    -0.447494   
O93      O      0.542980000000     0.952800000000     0.240890000000    -0.459332   
O94      O      0.473710000000     0.012970000000     0.240830000000    -0.460006   
O95      O      0.503410000000     0.977920000000     0.194100000000    -0.452398   
O96      O      0.514480000000     0.988210000000     0.287990000000    -0.450987   
O97      O      0.339460000000     0.161120000000     0.998690000000    -0.455065   
O98      O      0.353390000000     0.175670000000     0.091890000000    -0.456853   
O99      O      0.370100000000     0.232810000000     0.038910000000    -0.459113   
O100     O      0.321810000000     0.106390000000     0.050630000000    -0.467545   
O101     O      0.392420000000     0.117780000000     0.054510000000    -0.450001   
O102     O      0.439610000000     0.242790000000     0.031500000000    -0.452458   
O103     O      0.426550000000     0.194960000000     0.087460000000    -0.455427   
O104     O      0.407620000000     0.166360000000     0.996450000000    -0.45797    
O105     O      0.489650000000     0.534200000000     0.009790000000    -0.463401   
O106     O      0.465220000000     0.488340000000     0.422660000000    -0.459076   
O107     O      0.450740000000     0.451510000000     0.983510000000    -0.459159   
O108     O      0.505910000000     0.572490000000     0.449040000000    -0.452442   
O109     O      0.572380000000     0.574450000000     0.445630000000    -0.451952   
O110     O      0.518340000000     0.456200000000     0.983760000000    -0.456372   
O111     O      0.530820000000     0.488230000000     0.421570000000    -0.449706   
O112     O      0.558180000000     0.540610000000     0.007960000000    -0.449492   
O113     O      0.188290000000     0.884850000000     0.196400000000    -0.4499     
O114     O      0.155890000000     0.839480000000     0.108450000000    -0.451369   
O115     O      0.132390000000     0.802260000000     0.169610000000    -0.456417   
O116     O      0.210720000000     0.920470000000     0.134440000000    -0.455771   
O117     O      0.269720000000     0.908590000000     0.136510000000    -0.448506   
O118     O      0.189150000000     0.787640000000     0.167370000000    -0.452142   
O119     O      0.214500000000     0.827200000000     0.106970000000    -0.446637   
O120     O      0.243900000000     0.868080000000     0.196180000000    -0.451356   
O121     O      0.971950000000     0.524390000000     0.258010000000    -0.44857    
O122     O      0.967650000000     0.491520000000     0.167400000000    -0.449419   
O123     O      0.937780000000     0.445350000000     0.224440000000    -0.451285   
O124     O      0.002370000000     0.571280000000     0.200590000000    -0.448431   
O125     O      0.068130000000     0.572400000000     0.207000000000    -0.453784   
O126     O      0.003600000000     0.446160000000     0.229460000000    -0.448162   
O127     O      0.034600000000     0.494810000000     0.172960000000    -0.450519   
O128     O      0.038100000000     0.526100000000     0.263910000000    -0.446786   
O129     O      0.794390000000     0.186320000000     0.298450000000    -0.452854   
O130     O      0.837740000000     0.231790000000     0.384730000000    -0.456134   
O131     O      0.849510000000     0.266240000000     0.323170000000    -0.457647   
O132     O      0.779380000000     0.147950000000     0.360510000000    -0.455844   
O133     O      0.838610000000     0.137270000000     0.356360000000    -0.457023   
O134     O      0.904590000000     0.250820000000     0.311800000000    -0.454898   
O135     O      0.897020000000     0.221850000000     0.376100000000    -0.455151   
O136     O      0.847830000000     0.166870000000     0.293120000000    -0.455224   
O137     O      0.640050000000     0.870280000000     0.450900000000    -0.448983   
O138     O      0.640820000000     0.840640000000     0.359740000000    -0.447683   
O139     O      0.612040000000     0.793300000000     0.416890000000    -0.459502   
O140     O      0.668430000000     0.918670000000     0.393760000000    -0.451048   
O141     O      0.736820000000     0.925500000000     0.399900000000    -0.454368   
O142     O      0.679880000000     0.799550000000     0.423760000000    -0.448803   
O143     O      0.709330000000     0.848150000000     0.366680000000    -0.457941   
O144     O      0.709240000000     0.878800000000     0.456760000000    -0.453714   
O145     O      0.853640000000     0.612520000000     0.791170000000    -0.447342   
O146     O      0.805930000000     0.607270000000     0.877720000000    -0.450655   
O147     O      0.770090000000     0.583400000000     0.816530000000    -0.45216    
O148     O      0.890710000000     0.636520000000     0.852570000000    -0.448559   
O149     O      0.899070000000     0.705160000000     0.845720000000    -0.458267   
O150     O      0.779250000000     0.652380000000     0.809880000000    -0.455054   
O151     O      0.816110000000     0.676530000000     0.870770000000    -0.454965   
O152     O      0.863680000000     0.681890000000     0.784610000000    -0.452001   
O153     O      0.173260000000     0.782570000000     0.941650000000    -0.454229   
O154     O      0.201830000000     0.821430000000     0.852000000000    -0.448761   
O155     O      0.248800000000     0.842520000000     0.909390000000    -0.454202   
O156     O      0.125100000000     0.760700000000     0.884210000000    -0.45247    
O157     O      0.108650000000     0.815210000000     0.893200000000    -0.458686   
O158     O      0.231890000000     0.896960000000     0.918110000000    -0.452253   
O159     O      0.183890000000     0.874980000000     0.860930000000    -0.453558   
O160     O      0.155290000000     0.836090000000     0.950580000000    -0.449872   
O161     O      0.514640000000     0.991920000000     0.949990000000    -0.451967   
O162     O      0.491230000000     0.987160000000     0.542220000000    -0.457819   
O163     O      0.439830000000     0.956250000000     0.987910000000    -0.457952   
O164     O      0.568070000000     0.024430000000     0.504890000000    -0.451184   
O165     O      0.566030000000     0.088340000000     0.500930000000    -0.45861    
O166     O      0.437620000000     0.020160000000     0.984540000000    -0.453574   
O167     O      0.491300000000     0.052520000000     0.538810000000    -0.452178   
O168     O      0.513730000000     0.056740000000     0.946320000000    -0.451716   
O169     O      0.169300000000     0.321480000000     0.680380000000    -0.459303   
O170     O      0.194950000000     0.322680000000     0.589390000000    -0.459264   
O171     O      0.246780000000     0.348830000000     0.644620000000    -0.449739   
O172     O      0.119340000000     0.297250000000     0.625450000000    -0.455768   
O173     O      0.129080000000     0.366570000000     0.619310000000    -0.454255   
O174     O      0.254910000000     0.417480000000     0.641220000000    -0.460831   
O175     O      0.206710000000     0.392840000000     0.584820000000    -0.456115   
O176     O      0.177320000000     0.390360000000     0.676030000000    -0.453562   
O177     O      0.840420000000     0.173330000000     0.533020000000    -0.450732   
O178     O      0.825870000000     0.158020000000     0.626400000000    -0.451396   
O179     O      0.767550000000     0.131360000000     0.574010000000    -0.453024   
O180     O      0.896590000000     0.198180000000     0.584600000000    -0.458981   
O181     O      0.894780000000     0.262310000000     0.590380000000    -0.44676    
O182     O      0.765180000000     0.195470000000     0.576330000000    -0.450559   
O183     O      0.820500000000     0.220450000000     0.629910000000    -0.453191   
O184     O      0.838630000000     0.237680000000     0.537120000000    -0.451325   
O185     O      0.531540000000     0.483860000000     0.668440000000    -0.453618   
O186     O      0.511850000000     0.459690000000     0.760200000000    -0.456193   
O187     O      0.457310000000     0.441820000000     0.706790000000    -0.44927    
O188     O      0.586460000000     0.502090000000     0.722320000000    -0.451029   
O189     O      0.586080000000     0.565720000000     0.733500000000    -0.459575   
O190     O      0.460790000000     0.508840000000     0.708640000000    -0.455437   
O191     O      0.505590000000     0.521480000000     0.765980000000    -0.456464   
O192     O      0.541600000000     0.553130000000     0.676340000000    -0.454821   
O193     O      0.207510000000     0.381370000000     0.837270000000    -0.457619   
O194     O      0.244730000000     0.378900000000     0.924920000000    -0.457948   
O195     O      0.260130000000     0.351140000000     0.866000000000    -0.445751   
O196     O      0.191330000000     0.406800000000     0.895540000000    -0.449619   
O197     O      0.131210000000     0.338150000000     0.903550000000    -0.45682    
O198     O      0.198260000000     0.283450000000     0.872580000000    -0.460489   
O199     O      0.184950000000     0.309780000000     0.931970000000    -0.452128   
O200     O      0.146210000000     0.313070000000     0.843890000000    -0.451104   
O201     O      0.392740000000     0.198060000000     0.836100000000    -0.453903   
O202     O      0.388660000000     0.222180000000     0.744510000000    -0.454587   
O203     O      0.359280000000     0.243300000000     0.800120000000    -0.452472   
O204     O      0.422160000000     0.178950000000     0.780820000000    -0.458397   
O205     O      0.356130000000     0.114250000000     0.777470000000    -0.453235   
O206     O      0.293310000000     0.179520000000     0.794650000000    -0.458879   
O207     O      0.323530000000     0.157100000000     0.740140000000    -0.460069   
O208     O      0.325020000000     0.135470000000     0.831700000000    -0.459484   
O209     O      0.035440000000     0.548270000000     0.928660000000    -0.449042   
O210     O      0.034060000000     0.506640000000     0.516770000000    -0.451802   
O211     O      0.068000000000     0.500000000000     0.958740000000    -0.459494   
O212     O      0.001080000000     0.556610000000     0.487510000000    -0.452622   
O213     O      0.936040000000     0.493210000000     0.477950000000    -0.458136   
O214     O      0.003000000000     0.436920000000     0.947150000000    -0.448419   
O215     O      0.968440000000     0.443760000000     0.506070000000    -0.453892   
O216     O      0.968830000000     0.486050000000     0.918960000000    -0.454428   
O217     O      0.711470000000     0.872990000000     0.614490000000    -0.450971   
O218     O      0.718100000000     0.846860000000     0.705300000000    -0.450178   
O219     O      0.741010000000     0.823740000000     0.647820000000    -0.453735   
O220     O      0.688790000000     0.896760000000     0.672200000000    -0.451764   
O221     O      0.619860000000     0.836140000000     0.669250000000    -0.46053    
O222     O      0.672000000000     0.763210000000     0.644830000000    -0.454248   
O223     O      0.648340000000     0.786790000000     0.702180000000    -0.455254   
O224     O      0.641930000000     0.812950000000     0.611500000000    -0.454362   
O225     O      0.882820000000     0.679170000000     0.623240000000    -0.449835   
O226     O      0.855790000000     0.678800000000     0.531620000000    -0.448573   
O227     O      0.836120000000     0.708980000000     0.587030000000    -0.453059   
O228     O      0.903200000000     0.648770000000     0.567290000000    -0.450494   
O229     O      0.840050000000     0.581820000000     0.572940000000    -0.452982   
O230     O      0.773020000000     0.642250000000     0.593600000000    -0.44564    
O231     O      0.793290000000     0.611320000000     0.537670000000    -0.449306   
O232     O      0.820670000000     0.611470000000     0.629040000000    -0.451887   
O233     O      0.577860000000     0.054990000000     0.782610000000    -0.456717   
O234     O      0.566380000000     0.045250000000     0.689300000000    -0.454265   
O235     O      0.537210000000     0.079530000000     0.736340000000    -0.455373   
O236     O      0.607130000000     0.018820000000     0.734870000000    -0.447334   
O237     O      0.542980000000     0.952810000000     0.740890000000    -0.459297   
O238     O      0.473710000000     0.012970000000     0.740830000000    -0.46004    
O239     O      0.503420000000     0.977920000000     0.694100000000    -0.452467   
O240     O      0.514480000000     0.988210000000     0.787990000000    -0.450998   
O241     O      0.339460000000     0.161120000000     0.498690000000    -0.455032   
O242     O      0.353390000000     0.175670000000     0.591890000000    -0.456828   
O243     O      0.370100000000     0.232810000000     0.538910000000    -0.459118   
O244     O      0.321810000000     0.106390000000     0.550630000000    -0.467547   
O245     O      0.392420000000     0.117780000000     0.554510000000    -0.449974   
O246     O      0.439610000000     0.242790000000     0.531500000000    -0.452488   
O247     O      0.426550000000     0.194960000000     0.587460000000    -0.455302   
O248     O      0.407620000000     0.166360000000     0.496450000000    -0.458034   
O249     O      0.489650000000     0.534190000000     0.509790000000    -0.46357    
O250     O      0.465220000000     0.488340000000     0.922660000000    -0.459065   
O251     O      0.450740000000     0.451510000000     0.483500000000    -0.459142   
O252     O      0.505900000000     0.572490000000     0.949050000000    -0.452243   
O253     O      0.572380000000     0.574440000000     0.945630000000    -0.451777   
O254     O      0.518340000000     0.456200000000     0.483760000000    -0.456315   
O255     O      0.530820000000     0.488230000000     0.921570000000    -0.449704   
O256     O      0.558180000000     0.540610000000     0.507960000000    -0.449555   
O257     O      0.188290000000     0.884840000000     0.696400000000    -0.450006   
O258     O      0.155890000000     0.839480000000     0.608450000000    -0.45134    
O259     O      0.132390000000     0.802260000000     0.669610000000    -0.456435   
O260     O      0.210720000000     0.920470000000     0.634440000000    -0.455817   
O261     O      0.269720000000     0.908600000000     0.636510000000    -0.448425   
O262     O      0.189150000000     0.787640000000     0.667370000000    -0.452145   
O263     O      0.214510000000     0.827200000000     0.606970000000    -0.446508   
O264     O      0.243900000000     0.868080000000     0.696180000000    -0.451369   
O265     O      0.971950000000     0.524390000000     0.758010000000    -0.448619   
O266     O      0.967650000000     0.491520000000     0.667400000000    -0.449421   
O267     O      0.937780000000     0.445350000000     0.724440000000    -0.451188   
O268     O      0.002370000000     0.571280000000     0.700590000000    -0.448366   
O269     O      0.068130000000     0.572390000000     0.707000000000    -0.453669   
O270     O      0.003600000000     0.446160000000     0.729460000000    -0.448164   
O271     O      0.034600000000     0.494810000000     0.672960000000    -0.450537   
O272     O      0.038090000000     0.526100000000     0.763910000000    -0.446932   
O273     O      0.794390000000     0.186320000000     0.798450000000    -0.452853   
O274     O      0.837740000000     0.231790000000     0.884730000000    -0.456174   
O275     O      0.849510000000     0.266240000000     0.823170000000    -0.457653   
O276     O      0.779380000000     0.147950000000     0.860510000000    -0.455846   
O277     O      0.838610000000     0.137270000000     0.856360000000    -0.456999   
O278     O      0.904590000000     0.250820000000     0.811800000000    -0.454884   
O279     O      0.897020000000     0.221850000000     0.876110000000    -0.455126   
O280     O      0.847830000000     0.166870000000     0.793120000000    -0.455196   
O281     O      0.640050000000     0.870280000000     0.950900000000    -0.44894    
O282     O      0.640820000000     0.840640000000     0.859740000000    -0.447727   
O283     O      0.612040000000     0.793310000000     0.916890000000    -0.459597   
O284     O      0.668430000000     0.918670000000     0.893760000000    -0.450965   
O285     O      0.736820000000     0.925500000000     0.899900000000    -0.454317   
O286     O      0.679880000000     0.799550000000     0.923760000000    -0.448751   
O287     O      0.709330000000     0.848150000000     0.866670000000    -0.458033   
O288     O      0.709240000000     0.878800000000     0.956760000000    -0.453554   


