data_structure

_audit_creation_method RASPA-1.0
_audit_creation_date 2023-5-19
_audit_author_name 'Poobodin Mano'

_cell_length_a    40.8259
_cell_length_b    41.3625
_cell_length_c    41.3929
_cell_angle_alpha 90
_cell_angle_beta  90
_cell_angle_gamma 90
_cell_volume      69898.6

_symmetry_cell_setting          triclinic
_symmetry_space_group_name_Hall 'P 1'
_symmetry_space_group_name_H-M  'P 1'
_symmetry_Int_Tables_number     1

_symmetry_equiv_pos_as_xyz 'x,y,z'

loop_
_atom_site_label
_atom_site_type_symbol
_atom_site_fract_x
_atom_site_fract_y
_atom_site_fract_z
_atom_site_charge
C1       C      0.513010000000     0.081950000000     0.289020000000     0.452829   
C2       C      0.012460000000     0.461890000000     0.260990000000     0.436549   
C3       C      0.450440000000     0.022670000000     0.280010000000     0.446971   
C4       C      0.074590000000     0.022320000000     0.270280000000     0.433094   
C5       C      0.508620000000     0.268700000000     0.203040000000     0.427469   
C6       C      0.502660000000     0.268770000000     0.326160000000     0.443791   
C7       C      0.006230000000     0.207190000000     0.265410000000     0.426326   
C8       C      0.005230000000     0.331010000000     0.264470000000     0.423678   
C9       C      0.326770000000     0.507400000000     0.249320000000     0.432554   
C10      C      0.202310000000     0.502510000000     0.246060000000     0.448938   
C11      C      0.262660000000     0.007720000000     0.308650000000     0.449867   
C12      C      0.266940000000     0.002260000000     0.185890000000     0.445632   
C13      C      0.271240000000     0.992140000000     0.055050000000     0.431941   
C14      C      0.250760000000     0.487300000000     0.433970000000     0.428647   
C15      C      0.258350000000     0.051780000000     0.991570000000     0.447913   
C16      C      0.263700000000     0.429350000000     0.997940000000     0.431045   
C17      C      0.023460000000     0.275140000000     0.073630000000     0.446773   
C18      C      0.517370000000     0.253200000000     0.452840000000     0.430954   
C19      C      0.082040000000     0.257180000000     0.010220000000     0.425367   
C20      C      0.457950000000     0.270490000000     0.015630000000     0.447513   
C21      C      0.274220000000     0.180150000000     0.997360000000     0.431059   
C22      C      0.256300000000     0.301290000000     0.986940000000     0.44735    
C23      C      0.326930000000     0.250430000000     0.500660000000     0.426015   
C24      C      0.204600000000     0.231800000000     0.483750000000     0.443179   
C25      C      0.376700000000     0.240530000000     0.532640000000    -0.0148705  
C26      C      0.379520000000     0.269100000000     0.478550000000    -0.0629489  
C27      C      0.405970000000     0.260670000000     0.044130000000    -0.00513507 
C28      C      0.406120000000     0.291600000000     0.992010000000     0.166767   
C29      C      0.134780000000     0.274650000000     0.486530000000    -0.0158662  
C30      C      0.132010000000     0.226240000000     0.023570000000    -0.0609747  
C31      C      0.154110000000     0.254280000000     0.461870000000    -0.00599142 
C32      C      0.151760000000     0.206630000000     0.999080000000     0.170833   
C33      C      0.290290000000     0.378250000000     0.982930000000    -0.0137145  
C34      C      0.242210000000     0.378810000000     0.021320000000    -0.0640328  
C35      C      0.273000000000     0.352560000000     0.462590000000    -0.00647177 
C36      C      0.226160000000     0.351550000000     0.502050000000     0.168904   
C37      C      0.295660000000     0.128390000000     0.976030000000    -0.013019   
C38      C      0.262080000000     0.129840000000     0.026900000000    -0.0648954  
C39      C      0.273920000000     0.101410000000     0.462900000000    -0.00554665 
C40      C      0.238630000000     0.104470000000     0.512890000000     0.169186   
C41      C      0.268090000000     0.465810000000     0.381450000000    -0.0111005  
C42      C      0.221640000000     0.505450000000     0.384860000000    -0.0641764  
C43      C      0.286660000000     0.988430000000     0.359160000000    -0.00368974 
C44      C      0.239660000000     0.028040000000     0.360810000000     0.167005   
C45      C      0.260560000000     0.464170000000     0.106230000000    -0.0106279  
C46      C      0.301340000000     0.009430000000     0.103760000000    -0.0607917  
C47      C      0.245170000000     0.478590000000     0.136440000000    -0.00737562 
C48      C      0.285410000000     0.025300000000     0.133540000000     0.16642    
C49      C      0.043770000000     0.263700000000     0.400780000000    -0.00920887 
C50      C      0.493380000000     0.229010000000     0.403610000000    -0.0607754  
C51      C      0.026850000000     0.286430000000     0.377370000000    -0.00650075 
C52      C      0.476550000000     0.251020000000     0.378170000000     0.164022   
C53      C      0.534870000000     0.247280000000     0.154060000000    -0.0135273  
C54      C      0.485520000000     0.283930000000     0.150070000000    -0.0626512  
C55      C      0.050440000000     0.264760000000     0.125480000000    -0.00448261 
C56      C      0.002380000000     0.302830000000     0.122640000000     0.166122   
C57      C      0.124880000000     0.042010000000     0.243570000000    -0.0122192  
C58      C      0.127940000000     0.502450000000     0.289750000000    -0.0666181  
C59      C      0.149570000000     0.021710000000     0.224710000000    -0.00540275 
C60      C      0.150810000000     0.480780000000     0.269760000000     0.169929   
C61      C      0.378980000000     0.482380000000     0.266260000000    -0.0143349  
C62      C      0.378140000000     0.537610000000     0.240460000000    -0.0648067  
C63      C      0.399060000000     0.996070000000     0.294550000000    -0.00757214 
C64      C      0.398080000000     0.050910000000     0.268680000000     0.170506   
C65      C      0.477630000000     0.383430000000     0.253350000000    -0.0148768  
C66      C      0.031590000000     0.381230000000     0.283110000000    -0.0622106  
C67      C      0.489910000000     0.413280000000     0.234460000000    -0.00660028 
C68      C      0.043540000000     0.410360000000     0.263840000000     0.169941   
C69      C      0.477100000000     0.154860000000     0.273000000000    -0.0141515  
C70      C      0.037530000000     0.155910000000     0.261690000000    -0.0651519  
C71      C      0.483100000000     0.131520000000     0.301370000000    -0.00578639 
C72      C      0.043620000000     0.133190000000     0.290320000000     0.169789   
C73      C      0.513010000000     0.081950000000     0.789020000000     0.452795   
C74      C      0.012460000000     0.461890000000     0.760990000000     0.436527   
C75      C      0.450440000000     0.022670000000     0.780010000000     0.446941   
C76      C      0.074590000000     0.022320000000     0.770280000000     0.433067   
C77      C      0.508620000000     0.268700000000     0.703050000000     0.427556   
C78      C      0.502660000000     0.268770000000     0.826170000000     0.443707   
C79      C      0.006230000000     0.207190000000     0.765410000000     0.426311   
C80      C      0.005230000000     0.331010000000     0.764470000000     0.423677   
C81      C      0.326770000000     0.507400000000     0.749320000000     0.432555   
C82      C      0.202310000000     0.502510000000     0.746060000000     0.448987   
C83      C      0.262660000000     0.007720000000     0.808650000000     0.449871   
C84      C      0.266940000000     0.002260000000     0.685890000000     0.445511   
C85      C      0.271240000000     0.992140000000     0.555050000000     0.431989   
C86      C      0.250760000000     0.487300000000     0.933980000000     0.428757   
C87      C      0.258350000000     0.051780000000     0.491570000000     0.448053   
C88      C      0.263700000000     0.429350000000     0.497940000000     0.431165   
C89      C      0.023460000000     0.275140000000     0.573630000000     0.446707   
C90      C      0.517370000000     0.253200000000     0.952840000000     0.430906   
C91      C      0.082040000000     0.257180000000     0.510220000000     0.425354   
C92      C      0.457950000000     0.270490000000     0.515630000000     0.447581   
C93      C      0.274220000000     0.180150000000     0.497360000000     0.431287   
C94      C      0.256300000000     0.301290000000     0.486940000000     0.447484   
C95      C      0.326930000000     0.250430000000     0.000660000000     0.426152   
C96      C      0.204600000000     0.231800000000     0.983750000000     0.443042   
C97      C      0.376700000000     0.240530000000     0.032640000000    -0.0148581  
C98      C      0.379520000000     0.269100000000     0.978550000000    -0.0629792  
C99      C      0.405970000000     0.260670000000     0.544130000000    -0.00513248 
C100     C      0.406120000000     0.291600000000     0.492010000000     0.166958   
C101     C      0.134780000000     0.274650000000     0.986530000000    -0.0160739  
C102     C      0.132010000000     0.226240000000     0.523570000000    -0.0610924  
C103     C      0.154110000000     0.254280000000     0.961870000000    -0.0059548  
C104     C      0.151760000000     0.206630000000     0.499080000000     0.170996   
C105     C      0.290290000000     0.378250000000     0.482930000000    -0.0134931  
C106     C      0.242210000000     0.378810000000     0.521320000000    -0.0639805  
C107     C      0.273000000000     0.352560000000     0.962590000000    -0.00644008 
C108     C      0.226160000000     0.351550000000     0.002050000000     0.169107   
C109     C      0.295660000000     0.128390000000     0.476030000000    -0.0129241  
C110     C      0.262080000000     0.129840000000     0.526900000000    -0.0648452  
C111     C      0.273920000000     0.101410000000     0.962900000000    -0.00552854 
C112     C      0.238630000000     0.104470000000     0.012890000000     0.169385   
C113     C      0.268090000000     0.465810000000     0.881450000000    -0.0111085  
C114     C      0.221640000000     0.505450000000     0.884860000000    -0.0641882  
C115     C      0.286660000000     0.988430000000     0.859160000000    -0.0036864  
C116     C      0.239660000000     0.028040000000     0.860810000000     0.167008   
C117     C      0.260560000000     0.464170000000     0.606230000000    -0.010619   
C118     C      0.301340000000     0.009430000000     0.603760000000    -0.0607969  
C119     C      0.245170000000     0.478590000000     0.636430000000    -0.00738156 
C120     C      0.285410000000     0.025300000000     0.633540000000     0.16646    
C121     C      0.043770000000     0.263700000000     0.900780000000    -0.00923344 
C122     C      0.493380000000     0.229010000000     0.903610000000    -0.0607468  
C123     C      0.026850000000     0.286430000000     0.877370000000    -0.00648006 
C124     C      0.476550000000     0.251020000000     0.878170000000     0.163914   
C125     C      0.534870000000     0.247280000000     0.654060000000    -0.0135404  
C126     C      0.485520000000     0.283930000000     0.650070000000    -0.0626988  
C127     C      0.050440000000     0.264760000000     0.625480000000    -0.00448254 
C128     C      0.002380000000     0.302830000000     0.622640000000     0.166164   
C129     C      0.124880000000     0.042010000000     0.743570000000    -0.0122213  
C130     C      0.127940000000     0.502450000000     0.789750000000    -0.0666198  
C131     C      0.149570000000     0.021710000000     0.724710000000    -0.00539833 
C132     C      0.150810000000     0.480780000000     0.769760000000     0.169933   
C133     C      0.378980000000     0.482380000000     0.766250000000    -0.0143049  
C134     C      0.378140000000     0.537610000000     0.740460000000    -0.0648031  
C135     C      0.399060000000     0.996070000000     0.794550000000    -0.00758821 
C136     C      0.398080000000     0.050910000000     0.768680000000     0.170504   
C137     C      0.477630000000     0.383430000000     0.753350000000    -0.0148906  
C138     C      0.031590000000     0.381230000000     0.783110000000    -0.0622696  
C139     C      0.489910000000     0.413280000000     0.734460000000    -0.00656047 
C140     C      0.043540000000     0.410360000000     0.763850000000     0.170002   
C141     C      0.477100000000     0.154860000000     0.773000000000    -0.0141494  
C142     C      0.037530000000     0.155910000000     0.761690000000    -0.0650947  
C143     C      0.483100000000     0.131520000000     0.801370000000    -0.00578787 
C144     C      0.043620000000     0.133190000000     0.790330000000     0.169769   
C145     C      0.513010000000     0.581950000000     0.289020000000     0.452831   
C146     C      0.012460000000     0.961890000000     0.260990000000     0.436543   
C147     C      0.450440000000     0.522670000000     0.280010000000     0.446976   
C148     C      0.074590000000     0.522320000000     0.270280000000     0.433104   
C149     C      0.508620000000     0.768700000000     0.203040000000     0.427469   
C150     C      0.502660000000     0.768770000000     0.326160000000     0.443791   
C151     C      0.006230000000     0.707190000000     0.265410000000     0.426326   
C152     C      0.005230000000     0.831010000000     0.264470000000     0.423677   
C153     C      0.326770000000     0.007400000000     0.249320000000     0.432508   
C154     C      0.202310000000     0.002510000000     0.246060000000     0.448895   
C155     C      0.262660000000     0.507720000000     0.308650000000     0.449912   
C156     C      0.266940000000     0.502260000000     0.185890000000     0.44568    
C157     C      0.271240000000     0.492140000000     0.055050000000     0.431935   
C158     C      0.250760000000     0.987300000000     0.433970000000     0.428653   
C159     C      0.258350000000     0.551780000000     0.991570000000     0.447906   
C160     C      0.263700000000     0.929350000000     0.997940000000     0.431048   
C161     C      0.023460000000     0.775140000000     0.073630000000     0.446794   
C162     C      0.517370000000     0.753200000000     0.452840000000     0.43096    
C163     C      0.082040000000     0.757170000000     0.010220000000     0.425364   
C164     C      0.457950000000     0.770490000000     0.015630000000     0.44775    
C165     C      0.274220000000     0.680150000000     0.997360000000     0.431126   
C166     C      0.256300000000     0.801300000000     0.986940000000     0.447463   
C167     C      0.326930000000     0.750430000000     0.500660000000     0.426001   
C168     C      0.204600000000     0.731800000000     0.483750000000     0.443163   
C169     C      0.376700000000     0.740530000000     0.532640000000    -0.0148744  
C170     C      0.379520000000     0.769100000000     0.478550000000    -0.0629526  
C171     C      0.405970000000     0.760670000000     0.044130000000    -0.00512588 
C172     C      0.406120000000     0.791600000000     0.992010000000     0.166776   
C173     C      0.134780000000     0.774650000000     0.486530000000    -0.0158534  
C174     C      0.132010000000     0.726240000000     0.023570000000    -0.0609546  
C175     C      0.154110000000     0.754280000000     0.461870000000    -0.00599571 
C176     C      0.151760000000     0.706620000000     0.999080000000     0.170854   
C177     C      0.290290000000     0.878250000000     0.982930000000    -0.0136864  
C178     C      0.242210000000     0.878810000000     0.021320000000    -0.0640336  
C179     C      0.273000000000     0.852570000000     0.462590000000    -0.00650419 
C180     C      0.226160000000     0.851550000000     0.502050000000     0.16891    
C181     C      0.295660000000     0.628390000000     0.976030000000    -0.0130184  
C182     C      0.262080000000     0.629840000000     0.026900000000    -0.0648896  
C183     C      0.273920000000     0.601410000000     0.462900000000    -0.00554698 
C184     C      0.238630000000     0.604470000000     0.512890000000     0.169185   
C185     C      0.268090000000     0.965810000000     0.381450000000    -0.0111206  
C186     C      0.221640000000     0.005450000000     0.384860000000    -0.0642534  
C187     C      0.286660000000     0.488430000000     0.359160000000    -0.00376773 
C188     C      0.239660000000     0.528040000000     0.360810000000     0.16699    
C189     C      0.260560000000     0.964170000000     0.106230000000    -0.0106317  
C190     C      0.301340000000     0.509440000000     0.103760000000    -0.0607961  
C191     C      0.245170000000     0.978590000000     0.136440000000    -0.00734976 
C192     C      0.285410000000     0.525300000000     0.133540000000     0.166457   
C193     C      0.043770000000     0.763700000000     0.400780000000    -0.00920865 
C194     C      0.493380000000     0.729010000000     0.403610000000    -0.060775   
C195     C      0.026850000000     0.786430000000     0.377370000000    -0.00650104 
C196     C      0.476550000000     0.751020000000     0.378170000000     0.164022   
C197     C      0.534870000000     0.747280000000     0.154060000000    -0.013538   
C198     C      0.485520000000     0.783930000000     0.150070000000    -0.0626337  
C199     C      0.050440000000     0.764760000000     0.125480000000    -0.00444133 
C200     C      0.002380000000     0.802830000000     0.122640000000     0.166079   
C201     C      0.124880000000     0.542010000000     0.243570000000    -0.0122131  
C202     C      0.127940000000     0.002450000000     0.289750000000    -0.0667185  
C203     C      0.149570000000     0.521710000000     0.224710000000    -0.0054053  
C204     C      0.150810000000     0.980780000000     0.269760000000     0.170028   
C205     C      0.378980000000     0.982380000000     0.266260000000    -0.0143254  
C206     C      0.378140000000     0.037610000000     0.240460000000    -0.0648106  
C207     C      0.399060000000     0.496070000000     0.294550000000    -0.00764577 
C208     C      0.398080000000     0.550910000000     0.268680000000     0.170505   
C209     C      0.477630000000     0.883430000000     0.253350000000    -0.014876   
C210     C      0.031590000000     0.881240000000     0.283110000000    -0.0622545  
C211     C      0.489910000000     0.913280000000     0.234460000000    -0.00659918 
C212     C      0.043540000000     0.910360000000     0.263840000000     0.169975   
C213     C      0.477100000000     0.654860000000     0.273000000000    -0.0141517  
C214     C      0.037530000000     0.655910000000     0.261690000000    -0.0651522  
C215     C      0.483100000000     0.631520000000     0.301370000000    -0.00578634 
C216     C      0.043620000000     0.633190000000     0.290320000000     0.169789   
C217     C      0.513010000000     0.581950000000     0.789020000000     0.452798   
C218     C      0.012460000000     0.961890000000     0.760990000000     0.436522   
C219     C      0.450440000000     0.522670000000     0.780010000000     0.446946   
C220     C      0.074590000000     0.522320000000     0.770280000000     0.433078   
C221     C      0.508620000000     0.768700000000     0.703050000000     0.427556   
C222     C      0.502660000000     0.768770000000     0.826170000000     0.443707   
C223     C      0.006230000000     0.707190000000     0.765410000000     0.426311   
C224     C      0.005230000000     0.831010000000     0.764470000000     0.423675   
C225     C      0.326770000000     0.007400000000     0.749320000000     0.432509   
C226     C      0.202310000000     0.002510000000     0.746060000000     0.448944   
C227     C      0.262660000000     0.507720000000     0.808650000000     0.449916   
C228     C      0.266940000000     0.502260000000     0.685890000000     0.44556    
C229     C      0.271240000000     0.492140000000     0.555050000000     0.431983   
C230     C      0.250760000000     0.987300000000     0.933980000000     0.428763   
C231     C      0.258350000000     0.551780000000     0.491570000000     0.448046   
C232     C      0.263700000000     0.929350000000     0.497940000000     0.431167   
C233     C      0.023460000000     0.775140000000     0.573630000000     0.446727   
C234     C      0.517370000000     0.753200000000     0.952840000000     0.430912   
C235     C      0.082040000000     0.757170000000     0.510220000000     0.425351   
C236     C      0.457950000000     0.770490000000     0.515630000000     0.447819   
C237     C      0.274220000000     0.680150000000     0.497360000000     0.431354   
C238     C      0.256300000000     0.801300000000     0.486940000000     0.447597   
C239     C      0.326930000000     0.750430000000     0.000660000000     0.426138   
C240     C      0.204600000000     0.731800000000     0.983750000000     0.443025   
C241     C      0.376700000000     0.740530000000     0.032640000000    -0.014862   
C242     C      0.379520000000     0.769100000000     0.978550000000    -0.0629829  
C243     C      0.405970000000     0.760670000000     0.544130000000    -0.0051233  
C244     C      0.406120000000     0.791600000000     0.492010000000     0.166967   
C245     C      0.134780000000     0.774650000000     0.986530000000    -0.0160611  
C246     C      0.132010000000     0.726240000000     0.523570000000    -0.0610722  
C247     C      0.154110000000     0.754280000000     0.961870000000    -0.0059591  
C248     C      0.151760000000     0.706620000000     0.499080000000     0.171017   
C249     C      0.290290000000     0.878250000000     0.482930000000    -0.0134651  
C250     C      0.242210000000     0.878810000000     0.521320000000    -0.0639813  
C251     C      0.273000000000     0.852570000000     0.962590000000    -0.00647252 
C252     C      0.226160000000     0.851550000000     0.002050000000     0.169113   
C253     C      0.295660000000     0.628390000000     0.476030000000    -0.0129235  
C254     C      0.262080000000     0.629840000000     0.526900000000    -0.0648393  
C255     C      0.273920000000     0.601410000000     0.962900000000    -0.00552886 
C256     C      0.238630000000     0.604470000000     0.012890000000     0.169383   
C257     C      0.268090000000     0.965810000000     0.881450000000    -0.0111285  
C258     C      0.221640000000     0.005450000000     0.884860000000    -0.0642652  
C259     C      0.286660000000     0.488430000000     0.859160000000    -0.00376439 
C260     C      0.239660000000     0.528040000000     0.860810000000     0.166993   
C261     C      0.260560000000     0.964170000000     0.606230000000    -0.0106228  
C262     C      0.301340000000     0.509440000000     0.603760000000    -0.0608013  
C263     C      0.245170000000     0.978590000000     0.636430000000    -0.00735572 
C264     C      0.285410000000     0.525300000000     0.633540000000     0.166496   
C265     C      0.043770000000     0.763700000000     0.900780000000    -0.00923323 
C266     C      0.493380000000     0.729010000000     0.903610000000    -0.0607464  
C267     C      0.026850000000     0.786430000000     0.877370000000    -0.00648035 
C268     C      0.476550000000     0.751020000000     0.878170000000     0.163914   
C269     C      0.534870000000     0.747280000000     0.654060000000    -0.0135511  
C270     C      0.485520000000     0.783930000000     0.650070000000    -0.0626813  
C271     C      0.050440000000     0.764760000000     0.625480000000    -0.00444127 
C272     C      0.002380000000     0.802830000000     0.622640000000     0.16612    
C273     C      0.124880000000     0.542010000000     0.743570000000    -0.0122152  
C274     C      0.127940000000     0.002450000000     0.789750000000    -0.0667202  
C275     C      0.149570000000     0.521710000000     0.724710000000    -0.00540088 
C276     C      0.150810000000     0.980780000000     0.769760000000     0.170033   
C277     C      0.378980000000     0.982380000000     0.766250000000    -0.0142953  
C278     C      0.378140000000     0.037610000000     0.740460000000    -0.064807   
C279     C      0.399060000000     0.496070000000     0.794550000000    -0.00766183 
C280     C      0.398080000000     0.550910000000     0.768680000000     0.170503   
C281     C      0.477630000000     0.883430000000     0.753350000000    -0.0148898  
C282     C      0.031590000000     0.881240000000     0.783110000000    -0.0623135  
C283     C      0.489910000000     0.913280000000     0.734460000000    -0.00655937 
C284     C      0.043540000000     0.910360000000     0.763850000000     0.170036   
C285     C      0.477100000000     0.654860000000     0.773000000000    -0.0141497  
C286     C      0.037530000000     0.655910000000     0.761690000000    -0.065095   
C287     C      0.483100000000     0.631520000000     0.801370000000    -0.00578782 
C288     C      0.043620000000     0.633190000000     0.790330000000     0.169769   
C289     C      0.013010000000     0.081950000000     0.289020000000     0.452799   
C290     C      0.512450000000     0.461890000000     0.260990000000     0.436562   
C291     C      0.950440000000     0.022670000000     0.280010000000     0.446946   
C292     C      0.574590000000     0.022320000000     0.270280000000     0.433106   
C293     C      0.008620000000     0.268700000000     0.203040000000     0.427277   
C294     C      0.002660000000     0.268770000000     0.326160000000     0.44359    
C295     C      0.506230000000     0.207190000000     0.265410000000     0.426525   
C296     C      0.505230000000     0.331010000000     0.264470000000     0.423879   
C297     C      0.826770000000     0.507400000000     0.249320000000     0.432603   
C298     C      0.702310000000     0.502510000000     0.246060000000     0.44893    
C299     C      0.762660000000     0.007720000000     0.308650000000     0.449853   
C300     C      0.766940000000     0.002260000000     0.185890000000     0.445624   
C301     C      0.771240000000     0.992140000000     0.055050000000     0.431994   
C302     C      0.750770000000     0.487300000000     0.433970000000     0.428419   
C303     C      0.758340000000     0.051780000000     0.991570000000     0.44793    
C304     C      0.763700000000     0.429350000000     0.997940000000     0.431072   
C305     C      0.523460000000     0.275140000000     0.073630000000     0.446817   
C306     C      0.017370000000     0.253200000000     0.452840000000     0.430866   
C307     C      0.582030000000     0.257180000000     0.010220000000     0.425464   
C308     C      0.957950000000     0.270490000000     0.015630000000     0.44737    
C309     C      0.774210000000     0.180150000000     0.997360000000     0.431082   
C310     C      0.756300000000     0.301290000000     0.986940000000     0.447358   
C311     C      0.826930000000     0.250430000000     0.500660000000     0.425999   
C312     C      0.704600000000     0.231800000000     0.483750000000     0.443184   
C313     C      0.876700000000     0.240530000000     0.532640000000    -0.0148606  
C314     C      0.879520000000     0.269100000000     0.478550000000    -0.0629809  
C315     C      0.905970000000     0.260670000000     0.044130000000    -0.0051315  
C316     C      0.906120000000     0.291600000000     0.992010000000     0.166781   
C317     C      0.634780000000     0.274650000000     0.486530000000    -0.0158789  
C318     C      0.632010000000     0.226240000000     0.023570000000    -0.0609871  
C319     C      0.654110000000     0.254280000000     0.461870000000    -0.00598906 
C320     C      0.651760000000     0.206630000000     0.999080000000     0.170835   
C321     C      0.790290000000     0.378250000000     0.982930000000    -0.0137144  
C322     C      0.742210000000     0.378810000000     0.021320000000    -0.0640322  
C323     C      0.773000000000     0.352560000000     0.462590000000    -0.00647162 
C324     C      0.726160000000     0.351550000000     0.502050000000     0.168904   
C325     C      0.795660000000     0.128390000000     0.976030000000    -0.0130188  
C326     C      0.762070000000     0.129840000000     0.026900000000    -0.0649627  
C327     C      0.773920000000     0.101410000000     0.462900000000    -0.00553915 
C328     C      0.738630000000     0.104470000000     0.512890000000     0.169218   
C329     C      0.768090000000     0.465810000000     0.381450000000    -0.0111451  
C330     C      0.721640000000     0.505450000000     0.384860000000    -0.0641685  
C331     C      0.786660000000     0.988430000000     0.359160000000    -0.00363527 
C332     C      0.739660000000     0.028040000000     0.360810000000     0.166953   
C333     C      0.760560000000     0.464170000000     0.106230000000    -0.0105838  
C334     C      0.801340000000     0.009430000000     0.103760000000    -0.0608363  
C335     C      0.745170000000     0.478590000000     0.136440000000    -0.0073875  
C336     C      0.785410000000     0.025300000000     0.133540000000     0.166452   
C337     C      0.543770000000     0.263700000000     0.400780000000    -0.00925794 
C338     C      0.993380000000     0.229010000000     0.403610000000    -0.0605218  
C339     C      0.526850000000     0.286430000000     0.377370000000    -0.00646594 
C340     C      0.976550000000     0.251020000000     0.378170000000     0.164075   
C341     C      0.034870000000     0.247280000000     0.154060000000    -0.0135215  
C342     C      0.985520000000     0.283930000000     0.150070000000    -0.0623458  
C343     C      0.550440000000     0.264760000000     0.125480000000    -0.00446216 
C344     C      0.502380000000     0.302830000000     0.122640000000     0.166436   
C345     C      0.624880000000     0.042010000000     0.243570000000    -0.0122339  
C346     C      0.627940000000     0.502450000000     0.289750000000    -0.0666188  
C347     C      0.649580000000     0.021710000000     0.224710000000    -0.00537098 
C348     C      0.650810000000     0.480780000000     0.269760000000     0.169928   
C349     C      0.878980000000     0.482380000000     0.266260000000    -0.0143149  
C350     C      0.878140000000     0.537610000000     0.240460000000    -0.0648067  
C351     C      0.899050000000     0.996070000000     0.294550000000    -0.00760864 
C352     C      0.898080000000     0.050910000000     0.268680000000     0.170504   
C353     C      0.977620000000     0.383430000000     0.253350000000    -0.0149248  
C354     C      0.531590000000     0.381230000000     0.283110000000    -0.062195   
C355     C      0.989910000000     0.413280000000     0.234460000000    -0.00624221 
C356     C      0.543540000000     0.410360000000     0.263840000000     0.169947   
C357     C      0.977100000000     0.154860000000     0.273000000000    -0.014058   
C358     C      0.537530000000     0.155910000000     0.261690000000    -0.0651367  
C359     C      0.983100000000     0.131520000000     0.301370000000    -0.00568181 
C360     C      0.543620000000     0.133190000000     0.290320000000     0.169794   
C361     C      0.013010000000     0.081950000000     0.789020000000     0.452765   
C362     C      0.512450000000     0.461890000000     0.760990000000     0.436541   
C363     C      0.950440000000     0.022670000000     0.780010000000     0.446915   
C364     C      0.574590000000     0.022320000000     0.770280000000     0.43308    
C365     C      0.008620000000     0.268700000000     0.703050000000     0.427364   
C366     C      0.002660000000     0.268770000000     0.826170000000     0.443507   
C367     C      0.506230000000     0.207190000000     0.765410000000     0.42651    
C368     C      0.505230000000     0.331010000000     0.764470000000     0.423877   
C369     C      0.826770000000     0.507400000000     0.749320000000     0.432604   
C370     C      0.702310000000     0.502510000000     0.746060000000     0.448979   
C371     C      0.762660000000     0.007720000000     0.808650000000     0.449857   
C372     C      0.766940000000     0.002260000000     0.685890000000     0.445504   
C373     C      0.771240000000     0.992140000000     0.555050000000     0.432042   
C374     C      0.750770000000     0.487300000000     0.933980000000     0.428529   
C375     C      0.758340000000     0.051780000000     0.491570000000     0.44807    
C376     C      0.763700000000     0.429350000000     0.497940000000     0.431192   
C377     C      0.523460000000     0.275140000000     0.573630000000     0.44675    
C378     C      0.017370000000     0.253200000000     0.952840000000     0.430818   
C379     C      0.582030000000     0.257180000000     0.510220000000     0.425451   
C380     C      0.957950000000     0.270490000000     0.515630000000     0.447438   
C381     C      0.774210000000     0.180150000000     0.497360000000     0.43131    
C382     C      0.756300000000     0.301290000000     0.486940000000     0.447491   
C383     C      0.826930000000     0.250430000000     0.000660000000     0.426136   
C384     C      0.704600000000     0.231800000000     0.983750000000     0.443046   
C385     C      0.876700000000     0.240530000000     0.032640000000    -0.0148482  
C386     C      0.879520000000     0.269100000000     0.978550000000    -0.0630112  
C387     C      0.905970000000     0.260670000000     0.544130000000    -0.0051289  
C388     C      0.906120000000     0.291600000000     0.492010000000     0.166972   
C389     C      0.634780000000     0.274650000000     0.986530000000    -0.0160866  
C390     C      0.632010000000     0.226240000000     0.523570000000    -0.0611047  
C391     C      0.654110000000     0.254280000000     0.961870000000    -0.00595245 
C392     C      0.651760000000     0.206630000000     0.499080000000     0.170997   
C393     C      0.790290000000     0.378250000000     0.482930000000    -0.0134929  
C394     C      0.742210000000     0.378810000000     0.521320000000    -0.0639799  
C395     C      0.773000000000     0.352560000000     0.962590000000    -0.00643993 
C396     C      0.726160000000     0.351550000000     0.002050000000     0.169107   
C397     C      0.795660000000     0.128390000000     0.476030000000    -0.0129239  
C398     C      0.762070000000     0.129840000000     0.526900000000    -0.0649125  
C399     C      0.773920000000     0.101410000000     0.962900000000    -0.00552104 
C400     C      0.738630000000     0.104470000000     0.012890000000     0.169417   
C401     C      0.768090000000     0.465810000000     0.881450000000    -0.011153   
C402     C      0.721640000000     0.505450000000     0.884860000000    -0.0641803  
C403     C      0.786660000000     0.988430000000     0.859160000000    -0.00363194 
C404     C      0.739660000000     0.028040000000     0.860810000000     0.166955   
C405     C      0.760560000000     0.464170000000     0.606230000000    -0.0105749  
C406     C      0.801340000000     0.009430000000     0.603760000000    -0.0608415  
C407     C      0.745170000000     0.478590000000     0.636430000000    -0.00739346 
C408     C      0.785410000000     0.025300000000     0.633540000000     0.166491   
C409     C      0.543770000000     0.263700000000     0.900780000000    -0.00928253 
C410     C      0.993380000000     0.229010000000     0.903610000000    -0.0604933  
C411     C      0.526850000000     0.286430000000     0.877370000000    -0.00644524 
C412     C      0.976550000000     0.251020000000     0.878170000000     0.163967   
C413     C      0.034870000000     0.247280000000     0.654060000000    -0.0135345  
C414     C      0.985520000000     0.283930000000     0.650070000000    -0.0623933  
C415     C      0.550440000000     0.264760000000     0.625480000000    -0.00446209 
C416     C      0.502380000000     0.302830000000     0.622640000000     0.166477   
C417     C      0.624880000000     0.042010000000     0.743570000000    -0.012236   
C418     C      0.627940000000     0.502450000000     0.789750000000    -0.0666204  
C419     C      0.649580000000     0.021710000000     0.724710000000    -0.00536657 
C420     C      0.650810000000     0.480780000000     0.769760000000     0.169933   
C421     C      0.878980000000     0.482380000000     0.766250000000    -0.0142849  
C422     C      0.878140000000     0.537610000000     0.740460000000    -0.064803   
C423     C      0.899050000000     0.996070000000     0.794550000000    -0.0076247  
C424     C      0.898080000000     0.050910000000     0.768680000000     0.170502   
C425     C      0.977620000000     0.383430000000     0.753350000000    -0.0149385  
C426     C      0.531590000000     0.381230000000     0.783110000000    -0.062254   
C427     C      0.989910000000     0.413280000000     0.734460000000    -0.00620263 
C428     C      0.543540000000     0.410360000000     0.763850000000     0.170008   
C429     C      0.977100000000     0.154860000000     0.773000000000    -0.014056   
C430     C      0.537530000000     0.155910000000     0.761690000000    -0.0650795  
C431     C      0.983100000000     0.131520000000     0.801370000000    -0.0056833  
C432     C      0.543620000000     0.133190000000     0.790330000000     0.169774   
C433     C      0.013010000000     0.581950000000     0.289020000000     0.452801   
C434     C      0.512450000000     0.961890000000     0.260990000000     0.436557   
C435     C      0.950440000000     0.522670000000     0.280010000000     0.446951   
C436     C      0.574590000000     0.522320000000     0.270280000000     0.433117   
C437     C      0.008620000000     0.768700000000     0.203040000000     0.427277   
C438     C      0.002660000000     0.768770000000     0.326160000000     0.44359    
C439     C      0.506230000000     0.707190000000     0.265410000000     0.426525   
C440     C      0.505230000000     0.831010000000     0.264470000000     0.423877   
C441     C      0.826770000000     0.007400000000     0.249320000000     0.432557   
C442     C      0.702310000000     0.002510000000     0.246060000000     0.448887   
C443     C      0.762660000000     0.507720000000     0.308650000000     0.449898   
C444     C      0.766940000000     0.502260000000     0.185890000000     0.445673   
C445     C      0.771240000000     0.492140000000     0.055050000000     0.431988   
C446     C      0.750770000000     0.987300000000     0.433970000000     0.428424   
C447     C      0.758340000000     0.551780000000     0.991570000000     0.447924   
C448     C      0.763700000000     0.929350000000     0.997940000000     0.431074   
C449     C      0.523460000000     0.775140000000     0.073630000000     0.446837   
C450     C      0.017370000000     0.753200000000     0.452840000000     0.430872   
C451     C      0.582030000000     0.757170000000     0.010220000000     0.425462   
C452     C      0.957950000000     0.770490000000     0.015630000000     0.447607   
C453     C      0.774210000000     0.680150000000     0.997360000000     0.431149   
C454     C      0.756300000000     0.801300000000     0.986940000000     0.447471   
C455     C      0.826930000000     0.750430000000     0.500660000000     0.425985   
C456     C      0.704600000000     0.731800000000     0.483750000000     0.443168   
C457     C      0.876700000000     0.740530000000     0.532640000000    -0.0148645  
C458     C      0.879520000000     0.769100000000     0.478550000000    -0.0629846  
C459     C      0.905970000000     0.760670000000     0.044130000000    -0.00512233 
C460     C      0.906120000000     0.791600000000     0.992010000000     0.16679    
C461     C      0.634780000000     0.774650000000     0.486530000000    -0.0158661  
C462     C      0.632010000000     0.726240000000     0.023570000000    -0.0609669  
C463     C      0.654110000000     0.754280000000     0.461870000000    -0.00599335 
C464     C      0.651760000000     0.706620000000     0.999080000000     0.170856   
C465     C      0.790290000000     0.878250000000     0.982930000000    -0.0136863  
C466     C      0.742210000000     0.878810000000     0.021320000000    -0.0640331  
C467     C      0.773000000000     0.852570000000     0.462590000000    -0.00650404 
C468     C      0.726160000000     0.851550000000     0.502050000000     0.168909   
C469     C      0.795660000000     0.628390000000     0.976030000000    -0.0130182  
C470     C      0.762070000000     0.629840000000     0.026900000000    -0.0649569  
C471     C      0.773920000000     0.601410000000     0.462900000000    -0.00553947 
C472     C      0.738630000000     0.604470000000     0.512890000000     0.169217   
C473     C      0.768090000000     0.965810000000     0.381450000000    -0.0111651  
C474     C      0.721640000000     0.005450000000     0.384860000000    -0.0642454  
C475     C      0.786660000000     0.488430000000     0.359160000000    -0.00371327 
C476     C      0.739660000000     0.528040000000     0.360810000000     0.166938   
C477     C      0.760560000000     0.964170000000     0.106230000000    -0.0105877  
C478     C      0.801340000000     0.509440000000     0.103760000000    -0.0608407  
C479     C      0.745170000000     0.978590000000     0.136440000000    -0.00736165 
C480     C      0.785410000000     0.525300000000     0.133540000000     0.166488   
C481     C      0.543770000000     0.763700000000     0.400780000000    -0.00925772 
C482     C      0.993380000000     0.729010000000     0.403610000000    -0.0605214  
C483     C      0.526850000000     0.786430000000     0.377370000000    -0.00646623 
C484     C      0.976550000000     0.751020000000     0.378170000000     0.164075   
C485     C      0.034870000000     0.747280000000     0.154060000000    -0.0135322  
C486     C      0.985520000000     0.783930000000     0.150070000000    -0.0623283  
C487     C      0.550440000000     0.764760000000     0.125480000000    -0.00442089 
C488     C      0.502380000000     0.802830000000     0.122640000000     0.166392   
C489     C      0.624880000000     0.542010000000     0.243570000000    -0.0122278  
C490     C      0.627940000000     0.002450000000     0.289750000000    -0.0667192  
C491     C      0.649580000000     0.521710000000     0.224710000000    -0.00537354 
C492     C      0.650810000000     0.980780000000     0.269760000000     0.170028   
C493     C      0.878980000000     0.982380000000     0.266260000000    -0.0143054  
C494     C      0.878140000000     0.037610000000     0.240460000000    -0.0648106  
C495     C      0.899050000000     0.496070000000     0.294550000000    -0.00768226 
C496     C      0.898080000000     0.550910000000     0.268680000000     0.170503   
C497     C      0.977620000000     0.883430000000     0.253350000000    -0.014924   
C498     C      0.531590000000     0.881240000000     0.283110000000    -0.0622389  
C499     C      0.989910000000     0.913280000000     0.234460000000    -0.00624115 
C500     C      0.543540000000     0.910360000000     0.263840000000     0.169981   
C501     C      0.977100000000     0.654860000000     0.273000000000    -0.0140582  
C502     C      0.537530000000     0.655910000000     0.261690000000    -0.065137   
C503     C      0.983100000000     0.631520000000     0.301370000000    -0.00568177 
C504     C      0.543620000000     0.633190000000     0.290320000000     0.169794   
C505     C      0.013010000000     0.581950000000     0.789020000000     0.452768   
C506     C      0.512450000000     0.961890000000     0.760990000000     0.436536   
C507     C      0.950440000000     0.522670000000     0.780010000000     0.446921   
C508     C      0.574590000000     0.522320000000     0.770280000000     0.43309    
C509     C      0.008620000000     0.768700000000     0.703050000000     0.427364   
C510     C      0.002660000000     0.768770000000     0.826170000000     0.443506   
C511     C      0.506230000000     0.707190000000     0.765410000000     0.42651    
C512     C      0.505230000000     0.831010000000     0.764470000000     0.423875   
C513     C      0.826770000000     0.007400000000     0.749320000000     0.432558   
C514     C      0.702310000000     0.002510000000     0.746060000000     0.448936   
C515     C      0.762660000000     0.507720000000     0.808650000000     0.449901   
C516     C      0.766940000000     0.502260000000     0.685890000000     0.445552   
C517     C      0.771240000000     0.492140000000     0.555050000000     0.432036   
C518     C      0.750770000000     0.987300000000     0.933980000000     0.428534   
C519     C      0.758340000000     0.551780000000     0.491570000000     0.448064   
C520     C      0.763700000000     0.929350000000     0.497940000000     0.431194   
C521     C      0.523460000000     0.775140000000     0.573630000000     0.44677    
C522     C      0.017370000000     0.753200000000     0.952840000000     0.430824   
C523     C      0.582030000000     0.757170000000     0.510220000000     0.425448   
C524     C      0.957950000000     0.770490000000     0.515630000000     0.447675   
C525     C      0.774210000000     0.680150000000     0.497360000000     0.431377   
C526     C      0.756300000000     0.801300000000     0.486940000000     0.447604   
C527     C      0.826930000000     0.750430000000     0.000660000000     0.426122   
C528     C      0.704600000000     0.731800000000     0.983750000000     0.44303    
C529     C      0.876700000000     0.740530000000     0.032640000000    -0.0148521  
C530     C      0.879520000000     0.769100000000     0.978550000000    -0.0630149  
C531     C      0.905970000000     0.760670000000     0.544130000000    -0.00511972 
C532     C      0.906120000000     0.791600000000     0.492010000000     0.166981   
C533     C      0.634780000000     0.774650000000     0.986530000000    -0.0160738  
C534     C      0.632010000000     0.726240000000     0.523570000000    -0.0610845  
C535     C      0.654110000000     0.754280000000     0.961870000000    -0.00595673 
C536     C      0.651760000000     0.706620000000     0.499080000000     0.171018   
C537     C      0.790290000000     0.878250000000     0.482930000000    -0.0134649  
C538     C      0.742210000000     0.878810000000     0.521320000000    -0.0639808  
C539     C      0.773000000000     0.852570000000     0.962590000000    -0.00647237 
C540     C      0.726160000000     0.851550000000     0.002050000000     0.169112   
C541     C      0.795660000000     0.628390000000     0.476030000000    -0.0129233  
C542     C      0.762070000000     0.629840000000     0.526900000000    -0.0649066  
C543     C      0.773920000000     0.601410000000     0.962900000000    -0.00552136 
C544     C      0.738630000000     0.604470000000     0.012890000000     0.169416   
C545     C      0.768090000000     0.965810000000     0.881450000000    -0.0111731  
C546     C      0.721640000000     0.005450000000     0.884860000000    -0.0642572  
C547     C      0.786660000000     0.488430000000     0.859160000000    -0.00370993 
C548     C      0.739660000000     0.528040000000     0.860810000000     0.16694    
C549     C      0.760560000000     0.964170000000     0.606230000000    -0.0105788  
C550     C      0.801340000000     0.509440000000     0.603760000000    -0.0608459  
C551     C      0.745170000000     0.978590000000     0.636430000000    -0.00736762 
C552     C      0.785410000000     0.525300000000     0.633540000000     0.166528   
C553     C      0.543770000000     0.763700000000     0.900780000000    -0.00928231 
C554     C      0.993380000000     0.729010000000     0.903610000000    -0.0604929  
C555     C      0.526850000000     0.786430000000     0.877370000000    -0.00644553 
C556     C      0.976550000000     0.751020000000     0.878170000000     0.163967   
C557     C      0.034870000000     0.747280000000     0.654060000000    -0.0135452  
C558     C      0.985520000000     0.783930000000     0.650070000000    -0.0623758  
C559     C      0.550440000000     0.764760000000     0.625480000000    -0.00442082 
C560     C      0.502380000000     0.802830000000     0.622640000000     0.166433   
C561     C      0.624880000000     0.542010000000     0.743570000000    -0.0122299  
C562     C      0.627940000000     0.002450000000     0.789750000000    -0.0667208  
C563     C      0.649580000000     0.521710000000     0.724710000000    -0.00536912 
C564     C      0.650810000000     0.980780000000     0.769760000000     0.170032   
C565     C      0.878980000000     0.982380000000     0.766250000000    -0.0142753  
C566     C      0.878140000000     0.037610000000     0.740460000000    -0.0648069  
C567     C      0.899050000000     0.496070000000     0.794550000000    -0.00769831 
C568     C      0.898080000000     0.550910000000     0.768680000000     0.170501   
C569     C      0.977620000000     0.883430000000     0.753350000000    -0.0149377  
C570     C      0.531590000000     0.881240000000     0.783110000000    -0.0622979  
C571     C      0.989910000000     0.913280000000     0.734460000000    -0.00620156 
C572     C      0.543540000000     0.910360000000     0.763850000000     0.170042   
C573     C      0.977100000000     0.654860000000     0.773000000000    -0.0140562  
C574     C      0.537530000000     0.655910000000     0.761690000000    -0.0650798  
C575     C      0.983100000000     0.631520000000     0.801370000000    -0.00568325 
C576     C      0.543620000000     0.633190000000     0.790330000000     0.169774   
H1       H      0.396260000000     0.281260000000     0.058500000000     0.0413157  
H2       H      0.359850000000     0.236290000000     0.053320000000     0.0450086  
H3       H      0.394000000000     0.312750000000     0.003740000000     0.0052432  
H4       H      0.364080000000     0.282930000000     0.461200000000     0.0554872  
H5       H      0.421520000000     0.245910000000     0.060570000000     0.0438905  
H6       H      0.386020000000     0.216500000000     0.524870000000     0.0429351  
H7       H      0.391420000000     0.248950000000     0.465160000000     0.0633754  
H8       H      0.414840000000     0.320050000000     0.455660000000     0.140469   
H9       H      0.136430000000     0.243180000000     0.444690000000     0.038291   
H10      H      0.119360000000     0.292470000000     0.473340000000     0.0428076  
H11      H      0.133690000000     0.194060000000     0.983240000000     0.00526373 
H12      H      0.114810000000     0.210080000000     0.036750000000     0.0647017  
H13      H      0.171010000000     0.270250000000     0.448050000000     0.0398147  
H14      H      0.152520000000     0.288140000000     0.501820000000     0.0504605  
H15      H      0.149280000000     0.236530000000     0.041640000000     0.0696907  
H16      H      0.178170000000     0.167710000000     0.998670000000     0.14508    
H17      H      0.258000000000     0.364850000000     0.443820000000     0.0400241  
H18      H      0.305310000000     0.393850000000     0.466800000000     0.0418125  
H19      H      0.209350000000     0.362910000000     0.484070000000     0.00374319 
H20      H      0.223060000000     0.394760000000     0.031880000000     0.0570465  
H21      H      0.291770000000     0.337380000000     0.450340000000     0.0401842  
H22      H      0.306850000000     0.366000000000     0.000400000000     0.043643   
H23      H      0.256090000000     0.367840000000     0.041690000000     0.0631198  
H24      H      0.187090000000     0.342320000000     0.527240000000     0.13883    
H25      H      0.255210000000     0.112620000000     0.446910000000     0.0387064  
H26      H      0.305010000000     0.143370000000     0.455730000000     0.0441512  
H27      H      0.218530000000     0.117200000000     0.499760000000     0.00331384 
H28      H      0.248170000000     0.145980000000     0.043450000000     0.0639716  
H29      H      0.288800000000     0.084700000000     0.447770000000     0.0411243  
H30      H      0.317120000000     0.116990000000     0.988030000000     0.0427459  
H31      H      0.281340000000     0.117270000000     0.041180000000     0.0625449  
H32      H      0.207380000000     0.098290000000     0.547750000000     0.144138   
H33      H      0.302680000000     0.004110000000     0.374220000000     0.0411201  
H34      H      0.285620000000     0.951260000000     0.396040000000     0.0413878  
H35      H      0.253750000000     0.046240000000     0.375040000000     0.00318646 
H36      H      0.207090000000     0.520240000000     0.402130000000     0.0567642  
H37      H      0.302780000000     0.974190000000     0.342800000000     0.0396359  
H38      H      0.253570000000     0.448830000000     0.366310000000     0.0463342  
H39      H      0.204560000000     0.489740000000     0.371000000000     0.0671329  
H40      H      0.207090000000     0.061540000000     0.353850000000     0.140834   
H41      H      0.223180000000     0.492610000000     0.129010000000     0.0418402  
H42      H      0.241580000000     0.451070000000     0.092040000000     0.0419406  
H43      H      0.267020000000     0.043380000000     0.125070000000     0.00911691 
H44      H      0.311290000000     0.028530000000     0.087540000000     0.0567363  
H45      H      0.236590000000     0.458680000000     0.152410000000     0.0433669  
H46      H      0.279170000000     0.446120000000     0.113960000000     0.0417818  
H47      H      0.321930000000     0.993810000000     0.111900000000     0.0638375  
H48      H      0.314200000000     0.061880000000     0.141440000000     0.141755   
H49      H      0.014760000000     0.305870000000     0.391600000000     0.0452391  
H50      H      0.061830000000     0.277300000000     0.415660000000     0.0402244  
H51      H      0.461490000000     0.269290000000     0.391310000000     0.00956897 
H52      H      0.474700000000     0.219440000000     0.420700000000     0.0558672  
H53      H      0.045400000000     0.298140000000     0.361540000000     0.0428295  
H54      H      0.057440000000     0.245320000000     0.386520000000     0.042882   
H55      H      0.504950000000     0.208270000000     0.390870000000     0.062307   
H56      H      0.435930000000     0.227820000000     0.370470000000     0.140511   
H57      H      0.067450000000     0.283360000000     0.135210000000     0.0398754  
H58      H      0.054380000000     0.238970000000     0.170880000000     0.0439175  
H59      H      0.016720000000     0.323050000000     0.133520000000     0.00527609 
H60      H      0.470160000000     0.300800000000     0.164530000000     0.0553387  
H61      H      0.065220000000     0.247390000000     0.110990000000     0.0391979  
H62      H      0.522290000000     0.225360000000     0.144680000000     0.0440878  
H63      H      0.469250000000     0.265240000000     0.139290000000     0.0634696  
H64      H      0.969430000000     0.334830000000     0.111530000000     0.141327   
H65      H      0.135630000000     0.005700000000     0.208080000000     0.0389426  
H66      H      0.107680000000     0.053970000000     0.226510000000     0.0481194  
H67      H      0.135590000000     0.463370000000     0.255680000000     0.00114886 
H68      H      0.112760000000     0.487010000000     0.305890000000     0.0638384  
H69      H      0.165190000000     0.037750000000     0.209590000000     0.0421207  
H70      H      0.138600000000     0.061380000000     0.256370000000     0.0483558  
H71      H      0.143060000000     0.518770000000     0.305050000000     0.0712712  
H72      H      0.159460000000     0.445260000000     0.299290000000     0.142672   
H73      H      0.381860000000     0.003590000000     0.314000000000     0.0391744  
H74      H      0.363080000000     0.462530000000     0.275330000000     0.0430786  
H75      H      0.380510000000     0.059800000000     0.287330000000     0.0045589  
H76      H      0.361770000000     0.056760000000     0.230700000000     0.0635821  
H77      H      0.415510000000     0.476910000000     0.304220000000     0.0391943  
H78      H      0.396220000000     0.472110000000     0.248150000000     0.0427071  
H79      H      0.395370000000     0.530510000000     0.220890000000     0.0682639  
H80      H      0.404110000000     0.096040000000     0.256960000000     0.138609   
H81      H      0.500630000000     0.404880000000     0.211240000000     0.0393972  
H82      H      0.461380000000     0.368860000000     0.237430000000     0.042067   
H83      H      0.056200000000     0.400570000000     0.242040000000     0.00367697 
H84      H      0.052760000000     0.365320000000     0.288880000000     0.0655107  
H85      H      0.468880000000     0.429520000000     0.229020000000     0.0364609  
H86      H      0.462880000000     0.391960000000     0.274260000000     0.0431963  
H87      H      0.021430000000     0.390040000000     0.306450000000     0.0660817  
H88      H      0.079030000000     0.441350000000     0.267120000000     0.144232   
H89      H      0.984920000000     0.146040000000     0.323900000000     0.0440775  
H90      H      0.455520000000     0.170240000000     0.278640000000     0.048632   
H91      H      0.048440000000     0.148380000000     0.312090000000     0.00630604 
H92      H      0.059150000000     0.171890000000     0.258300000000     0.0599377  
H93      H      0.461920000000     0.114720000000     0.303770000000     0.0417159  
H94      H      0.471230000000     0.140280000000     0.251190000000     0.0499489  
H95      H      0.535020000000     0.140980000000     0.239470000000     0.0667152  
H96      H      0.090680000000     0.126370000000     0.288170000000     0.141561   
H97      H      0.396260000000     0.281260000000     0.558500000000     0.0413087  
H98      H      0.359850000000     0.236290000000     0.553320000000     0.0450088  
H99      H      0.394000000000     0.312750000000     0.503740000000     0.0051316  
H100     H      0.364080000000     0.282930000000     0.961200000000     0.0554766  
H101     H      0.421520000000     0.245910000000     0.560570000000     0.0438806  
H102     H      0.386020000000     0.216500000000     0.024870000000     0.0429565  
H103     H      0.391420000000     0.248950000000     0.965160000000     0.0633588  
H104     H      0.414840000000     0.320050000000     0.955660000000     0.140449   
H105     H      0.136430000000     0.243180000000     0.944690000000     0.0382789  
H106     H      0.119360000000     0.292470000000     0.973340000000     0.0428225  
H107     H      0.133690000000     0.194060000000     0.483230000000     0.00526905 
H108     H      0.114810000000     0.210080000000     0.536750000000     0.0647148  
H109     H      0.171010000000     0.270250000000     0.948050000000     0.0397985  
H110     H      0.152520000000     0.288140000000     0.001820000000     0.0505741  
H111     H      0.149280000000     0.236530000000     0.541640000000     0.069707   
H112     H      0.178170000000     0.167710000000     0.498660000000     0.145085   
H113     H      0.258000000000     0.364850000000     0.943820000000     0.0400142  
H114     H      0.305310000000     0.393850000000     0.966800000000     0.0418443  
H115     H      0.209350000000     0.362910000000     0.984070000000     0.00363367 
H116     H      0.223060000000     0.394760000000     0.531880000000     0.0570071  
H117     H      0.291770000000     0.337380000000     0.950350000000     0.0401734  
H118     H      0.306850000000     0.366000000000     0.500400000000     0.0435228  
H119     H      0.256090000000     0.367840000000     0.541690000000     0.0630993  
H120     H      0.187090000000     0.342320000000     0.027240000000     0.138856   
H121     H      0.255210000000     0.112620000000     0.946910000000     0.0386962  
H122     H      0.305010000000     0.143370000000     0.955730000000     0.0441645  
H123     H      0.218530000000     0.117200000000     0.999760000000     0.00319752 
H124     H      0.248170000000     0.145980000000     0.543450000000     0.0639501  
H125     H      0.288800000000     0.084700000000     0.947770000000     0.0411179  
H126     H      0.317120000000     0.116990000000     0.488030000000     0.0427575  
H127     H      0.281340000000     0.117270000000     0.541180000000     0.0625142  
H128     H      0.207380000000     0.098290000000     0.047750000000     0.14416    
H129     H      0.302680000000     0.004110000000     0.874220000000     0.0411207  
H130     H      0.285620000000     0.951260000000     0.896040000000     0.041392   
H131     H      0.253750000000     0.046240000000     0.875040000000     0.00318663 
H132     H      0.207090000000     0.520240000000     0.902130000000     0.0567649  
H133     H      0.302780000000     0.974190000000     0.842800000000     0.0396366  
H134     H      0.253570000000     0.448830000000     0.866310000000     0.046335   
H135     H      0.204560000000     0.489740000000     0.871000000000     0.0671345  
H136     H      0.207090000000     0.061540000000     0.853850000000     0.140834   
H137     H      0.223180000000     0.492610000000     0.629010000000     0.041837   
H138     H      0.241580000000     0.451070000000     0.592040000000     0.0419295  
H139     H      0.267020000000     0.043380000000     0.625070000000     0.00910264 
H140     H      0.311290000000     0.028530000000     0.587540000000     0.0567302  
H141     H      0.236590000000     0.458680000000     0.652410000000     0.0433624  
H142     H      0.279170000000     0.446120000000     0.613960000000     0.0417749  
H143     H      0.321930000000     0.993810000000     0.611900000000     0.0638339  
H144     H      0.314200000000     0.061880000000     0.641450000000     0.14182    
H145     H      0.014760000000     0.305870000000     0.891600000000     0.0452309  
H146     H      0.061830000000     0.277300000000     0.915660000000     0.0402217  
H147     H      0.461490000000     0.269290000000     0.891310000000     0.00958986 
H148     H      0.474700000000     0.219440000000     0.920700000000     0.055845   
H149     H      0.045400000000     0.298140000000     0.861540000000     0.0428206  
H150     H      0.057440000000     0.245320000000     0.886530000000     0.0428876  
H151     H      0.504950000000     0.208270000000     0.890870000000     0.0622924  
H152     H      0.435930000000     0.227820000000     0.870470000000     0.140419   
H153     H      0.067450000000     0.283360000000     0.635210000000     0.0398758  
H154     H      0.054380000000     0.238970000000     0.670880000000     0.0439254  
H155     H      0.016720000000     0.323050000000     0.633520000000     0.00526411 
H156     H      0.470160000000     0.300800000000     0.664530000000     0.0553534  
H157     H      0.065220000000     0.247390000000     0.610990000000     0.039198   
H158     H      0.522290000000     0.225360000000     0.644680000000     0.0440902  
H159     H      0.469250000000     0.265240000000     0.639300000000     0.0634892  
H160     H      0.969430000000     0.334830000000     0.611520000000     0.14139    
H161     H      0.135630000000     0.005700000000     0.708080000000     0.0389382  
H162     H      0.107680000000     0.053970000000     0.726510000000     0.04812    
H163     H      0.135590000000     0.463370000000     0.755680000000     0.00114714 
H164     H      0.112760000000     0.487010000000     0.805890000000     0.0638421  
H165     H      0.165190000000     0.037750000000     0.709590000000     0.0421102  
H166     H      0.138600000000     0.061380000000     0.756370000000     0.0483594  
H167     H      0.143060000000     0.518770000000     0.805050000000     0.071275   
H168     H      0.159460000000     0.445260000000     0.799290000000     0.142672   
H169     H      0.381860000000     0.003590000000     0.814000000000     0.0391798  
H170     H      0.363080000000     0.462530000000     0.775330000000     0.0430701  
H171     H      0.380510000000     0.059800000000     0.787330000000     0.00456349 
H172     H      0.361770000000     0.056760000000     0.730700000000     0.0635743  
H173     H      0.415510000000     0.476910000000     0.804220000000     0.0391993  
H174     H      0.396220000000     0.472110000000     0.748150000000     0.0427004  
H175     H      0.395370000000     0.530510000000     0.720890000000     0.0682603  
H176     H      0.404110000000     0.096040000000     0.756960000000     0.138609   
H177     H      0.500630000000     0.404880000000     0.711230000000     0.0393776  
H178     H      0.461380000000     0.368860000000     0.737430000000     0.0420707  
H179     H      0.056200000000     0.400570000000     0.742040000000     0.00369189 
H180     H      0.052760000000     0.365320000000     0.788880000000     0.0655224  
H181     H      0.468880000000     0.429520000000     0.729020000000     0.0364505  
H182     H      0.462880000000     0.391960000000     0.774260000000     0.0431997  
H183     H      0.021430000000     0.390040000000     0.806450000000     0.0660921  
H184     H      0.079030000000     0.441350000000     0.767120000000     0.144245   
H185     H      0.984920000000     0.146040000000     0.823900000000     0.0440744  
H186     H      0.455520000000     0.170240000000     0.778640000000     0.0486287  
H187     H      0.048440000000     0.148380000000     0.812090000000     0.00627763 
H188     H      0.059150000000     0.171890000000     0.758300000000     0.059928   
H189     H      0.461920000000     0.114720000000     0.803770000000     0.0417174  
H190     H      0.471230000000     0.140280000000     0.751190000000     0.0499518  
H191     H      0.535020000000     0.140980000000     0.739470000000     0.0667077  
H192     H      0.090680000000     0.126370000000     0.788170000000     0.141559   
H193     H      0.396260000000     0.781260000000     0.058500000000     0.0413123  
H194     H      0.359850000000     0.736290000000     0.053320000000     0.045009   
H195     H      0.394000000000     0.812750000000     0.003740000000     0.00523978 
H196     H      0.364080000000     0.782930000000     0.461200000000     0.0554874  
H197     H      0.421520000000     0.745910000000     0.060570000000     0.0438856  
H198     H      0.386020000000     0.716500000000     0.524870000000     0.042936   
H199     H      0.391420000000     0.748950000000     0.465160000000     0.0633759  
H200     H      0.414840000000     0.820050000000     0.455660000000     0.14047    
H201     H      0.136430000000     0.743180000000     0.444690000000     0.0382921  
H202     H      0.119360000000     0.792470000000     0.473340000000     0.0428056  
H203     H      0.133690000000     0.694060000000     0.983240000000     0.00523775 
H204     H      0.114810000000     0.710080000000     0.036750000000     0.0646943  
H205     H      0.171010000000     0.770250000000     0.448050000000     0.0398151  
H206     H      0.152520000000     0.788140000000     0.501820000000     0.0504596  
H207     H      0.149280000000     0.736530000000     0.041640000000     0.0696888  
H208     H      0.178170000000     0.667710000000     0.998670000000     0.145085   
H209     H      0.258000000000     0.864850000000     0.443820000000     0.0400371  
H210     H      0.305310000000     0.893860000000     0.466800000000     0.0418098  
H211     H      0.209350000000     0.862910000000     0.484070000000     0.00374439 
H212     H      0.223060000000     0.894760000000     0.031880000000     0.0570472  
H213     H      0.291770000000     0.837380000000     0.450340000000     0.0401989  
H214     H      0.306850000000     0.866000000000     0.000400000000     0.0436363  
H215     H      0.256090000000     0.867840000000     0.041690000000     0.0631189  
H216     H      0.187090000000     0.842320000000     0.527240000000     0.138831   
H217     H      0.255210000000     0.612620000000     0.446910000000     0.0387076  
H218     H      0.305010000000     0.643370000000     0.455730000000     0.0441514  
H219     H      0.218530000000     0.617200000000     0.499760000000     0.0033157  
H220     H      0.248170000000     0.645980000000     0.043450000000     0.0639784  
H221     H      0.288800000000     0.584700000000     0.447770000000     0.0411273  
H222     H      0.317120000000     0.616990000000     0.988030000000     0.042748   
H223     H      0.281340000000     0.617270000000     0.041180000000     0.0625471  
H224     H      0.207380000000     0.598290000000     0.547750000000     0.144141   
H225     H      0.302680000000     0.504110000000     0.374220000000     0.0411616  
H226     H      0.285620000000     0.451260000000     0.396040000000     0.0413809  
H227     H      0.253750000000     0.546240000000     0.375040000000     0.00319297 
H228     H      0.207090000000     0.020240000000     0.402130000000     0.0567691  
H229     H      0.302780000000     0.474190000000     0.342800000000     0.0396434  
H230     H      0.253570000000     0.948830000000     0.366310000000     0.046341   
H231     H      0.204560000000     0.989740000000     0.371000000000     0.0671739  
H232     H      0.207090000000     0.561540000000     0.353850000000     0.140834   
H233     H      0.223180000000     0.992610000000     0.129010000000     0.0418479  
H234     H      0.241580000000     0.951070000000     0.092040000000     0.0419426  
H235     H      0.267020000000     0.543370000000     0.125070000000     0.0091009  
H236     H      0.311290000000     0.528530000000     0.087540000000     0.0567662  
H237     H      0.236590000000     0.958680000000     0.152410000000     0.0433668  
H238     H      0.279170000000     0.946120000000     0.113960000000     0.0417857  
H239     H      0.321930000000     0.493810000000     0.111900000000     0.0638099  
H240     H      0.314200000000     0.561880000000     0.141440000000     0.14176    
H241     H      0.014760000000     0.805870000000     0.391600000000     0.0452394  
H242     H      0.061830000000     0.777300000000     0.415660000000     0.0402236  
H243     H      0.461490000000     0.769290000000     0.391310000000     0.00956928 
H244     H      0.474700000000     0.719440000000     0.420700000000     0.0558678  
H245     H      0.045400000000     0.798140000000     0.361540000000     0.0428295  
H246     H      0.057440000000     0.745320000000     0.386520000000     0.0428818  
H247     H      0.504950000000     0.708270000000     0.390870000000     0.0623072  
H248     H      0.435930000000     0.727820000000     0.370470000000     0.140511   
H249     H      0.067450000000     0.783360000000     0.135210000000     0.039862   
H250     H      0.054380000000     0.738970000000     0.170880000000     0.0439198  
H251     H      0.016720000000     0.823050000000     0.133520000000     0.00528254 
H252     H      0.470160000000     0.800800000000     0.164530000000     0.0553352  
H253     H      0.065220000000     0.747390000000     0.110990000000     0.0391909  
H254     H      0.522290000000     0.725360000000     0.144680000000     0.0440932  
H255     H      0.469250000000     0.765240000000     0.139290000000     0.0634676  
H256     H      0.969430000000     0.834830000000     0.111530000000     0.141326   
H257     H      0.135630000000     0.505700000000     0.208080000000     0.0389542  
H258     H      0.107680000000     0.553970000000     0.226510000000     0.04812    
H259     H      0.135590000000     0.963370000000     0.255680000000     0.0011325  
H260     H      0.112760000000     0.987010000000     0.305890000000     0.0638811  
H261     H      0.165190000000     0.537750000000     0.209590000000     0.0421243  
H262     H      0.138600000000     0.561380000000     0.256370000000     0.0483543  
H263     H      0.143060000000     0.018770000000     0.305050000000     0.0712849  
H264     H      0.159460000000     0.945270000000     0.299290000000     0.142775   
H265     H      0.381860000000     0.503590000000     0.314000000000     0.0392143  
H266     H      0.363080000000     0.962530000000     0.275330000000     0.0430827  
H267     H      0.380510000000     0.559800000000     0.287330000000     0.00456098 
H268     H      0.361770000000     0.556760000000     0.230700000000     0.0635821  
H269     H      0.415510000000     0.976910000000     0.304220000000     0.0391891  
H270     H      0.396220000000     0.972110000000     0.248150000000     0.0427145  
H271     H      0.395370000000     0.030510000000     0.220890000000     0.0682569  
H272     H      0.404110000000     0.596040000000     0.256960000000     0.138609   
H273     H      0.500630000000     0.904880000000     0.211240000000     0.0393993  
H274     H      0.461380000000     0.868860000000     0.237430000000     0.0420673  
H275     H      0.056200000000     0.900570000000     0.242040000000     0.0036713  
H276     H      0.052760000000     0.865320000000     0.288880000000     0.0655146  
H277     H      0.468880000000     0.929520000000     0.229020000000     0.0364648  
H278     H      0.462880000000     0.891960000000     0.274260000000     0.043198   
H279     H      0.021430000000     0.890040000000     0.306450000000     0.0661013  
H280     H      0.079030000000     0.941350000000     0.267120000000     0.144239   
H281     H      0.984920000000     0.646040000000     0.323900000000     0.044078   
H282     H      0.455520000000     0.670240000000     0.278640000000     0.048632   
H283     H      0.048440000000     0.648380000000     0.312090000000     0.00630635 
H284     H      0.059150000000     0.671890000000     0.258300000000     0.0599377  
H285     H      0.461920000000     0.614720000000     0.303770000000     0.0417163  
H286     H      0.471230000000     0.640280000000     0.251190000000     0.0499492  
H287     H      0.535020000000     0.640980000000     0.239470000000     0.0667157  
H288     H      0.090680000000     0.626370000000     0.288170000000     0.141562   
H289     H      0.396260000000     0.781260000000     0.558500000000     0.0413052  
H290     H      0.359850000000     0.736290000000     0.553320000000     0.0450091  
H291     H      0.394000000000     0.812750000000     0.503740000000     0.00512818 
H292     H      0.364080000000     0.782930000000     0.961200000000     0.0554768  
H293     H      0.421520000000     0.745910000000     0.560570000000     0.0438757  
H294     H      0.386020000000     0.716500000000     0.024870000000     0.0429574  
H295     H      0.391420000000     0.748950000000     0.965160000000     0.0633593  
H296     H      0.414840000000     0.820050000000     0.955660000000     0.140449   
H297     H      0.136430000000     0.743180000000     0.944690000000     0.03828    
H298     H      0.119360000000     0.792470000000     0.973340000000     0.0428206  
H299     H      0.133690000000     0.694060000000     0.483230000000     0.00524308 
H300     H      0.114810000000     0.710080000000     0.536750000000     0.0647074  
H301     H      0.171010000000     0.770250000000     0.948050000000     0.0397989  
H302     H      0.152520000000     0.788140000000     0.001820000000     0.0505733  
H303     H      0.149280000000     0.736530000000     0.541640000000     0.0697051  
H304     H      0.178170000000     0.667710000000     0.498660000000     0.145091   
H305     H      0.258000000000     0.864850000000     0.943820000000     0.0400272  
H306     H      0.305310000000     0.893860000000     0.966800000000     0.0418416  
H307     H      0.209350000000     0.862910000000     0.984070000000     0.00363488 
H308     H      0.223060000000     0.894760000000     0.531880000000     0.0570079  
H309     H      0.291770000000     0.837380000000     0.950350000000     0.0401881  
H310     H      0.306850000000     0.866000000000     0.500400000000     0.0435162  
H311     H      0.256090000000     0.867840000000     0.541690000000     0.0630984  
H312     H      0.187090000000     0.842320000000     0.027240000000     0.138857   
H313     H      0.255210000000     0.612620000000     0.946910000000     0.0386974  
H314     H      0.305010000000     0.643370000000     0.955730000000     0.0441646  
H315     H      0.218530000000     0.617200000000     0.999760000000     0.00319937 
H316     H      0.248170000000     0.645980000000     0.543450000000     0.0639569  
H317     H      0.288800000000     0.584700000000     0.947770000000     0.041121   
H318     H      0.317120000000     0.616990000000     0.488030000000     0.0427596  
H319     H      0.281340000000     0.617270000000     0.541180000000     0.0625164  
H320     H      0.207380000000     0.598290000000     0.047750000000     0.144163   
H321     H      0.302680000000     0.504110000000     0.874220000000     0.0411622  
H322     H      0.285620000000     0.451260000000     0.896040000000     0.041385   
H323     H      0.253750000000     0.546240000000     0.875040000000     0.00319314 
H324     H      0.207090000000     0.020240000000     0.902130000000     0.0567698  
H325     H      0.302780000000     0.474190000000     0.842800000000     0.0396442  
H326     H      0.253570000000     0.948830000000     0.866310000000     0.0463419  
H327     H      0.204560000000     0.989740000000     0.871000000000     0.0671755  
H328     H      0.207090000000     0.561540000000     0.853850000000     0.140834   
H329     H      0.223180000000     0.992610000000     0.629010000000     0.0418448  
H330     H      0.241580000000     0.951070000000     0.592040000000     0.0419315  
H331     H      0.267020000000     0.543370000000     0.625070000000     0.00908662 
H332     H      0.311290000000     0.528530000000     0.587540000000     0.0567602  
H333     H      0.236590000000     0.958680000000     0.652410000000     0.0433623  
H334     H      0.279170000000     0.946120000000     0.613960000000     0.0417788  
H335     H      0.321930000000     0.493810000000     0.611900000000     0.0638064  
H336     H      0.314200000000     0.561880000000     0.641450000000     0.141824   
H337     H      0.014760000000     0.805870000000     0.891600000000     0.0452312  
H338     H      0.061830000000     0.777300000000     0.915660000000     0.0402208  
H339     H      0.461490000000     0.769290000000     0.891310000000     0.00959017 
H340     H      0.474700000000     0.719440000000     0.920700000000     0.0558456  
H341     H      0.045400000000     0.798140000000     0.861540000000     0.0428205  
H342     H      0.057440000000     0.745320000000     0.886530000000     0.0428874  
H343     H      0.504950000000     0.708270000000     0.890870000000     0.0622926  
H344     H      0.435930000000     0.727820000000     0.870470000000     0.140419   
H345     H      0.067450000000     0.783360000000     0.635210000000     0.0398624  
H346     H      0.054380000000     0.738970000000     0.670880000000     0.0439277  
H347     H      0.016720000000     0.823050000000     0.633520000000     0.00527056 
H348     H      0.470160000000     0.800800000000     0.664530000000     0.0553499  
H349     H      0.065220000000     0.747390000000     0.610990000000     0.039191   
H350     H      0.522290000000     0.725360000000     0.644680000000     0.0440956  
H351     H      0.469250000000     0.765240000000     0.639300000000     0.0634872  
H352     H      0.969430000000     0.834830000000     0.611520000000     0.141389   
H353     H      0.135630000000     0.505700000000     0.708080000000     0.0389499  
H354     H      0.107680000000     0.553970000000     0.726510000000     0.0481206  
H355     H      0.135590000000     0.963370000000     0.755680000000     0.00113078 
H356     H      0.112760000000     0.987010000000     0.805890000000     0.0638848  
H357     H      0.165190000000     0.537750000000     0.709590000000     0.0421137  
H358     H      0.138600000000     0.561380000000     0.756370000000     0.0483579  
H359     H      0.143060000000     0.018770000000     0.805050000000     0.0712888  
H360     H      0.159460000000     0.945270000000     0.799290000000     0.142775   
H361     H      0.381860000000     0.503590000000     0.814000000000     0.0392197  
H362     H      0.363080000000     0.962530000000     0.775330000000     0.0430741  
H363     H      0.380510000000     0.559800000000     0.787330000000     0.00456556 
H364     H      0.361770000000     0.556760000000     0.730700000000     0.0635743  
H365     H      0.415510000000     0.976910000000     0.804220000000     0.0391941  
H366     H      0.396220000000     0.972110000000     0.748150000000     0.0427077  
H367     H      0.395370000000     0.030510000000     0.720890000000     0.0682532  
H368     H      0.404110000000     0.596040000000     0.756960000000     0.138609   
H369     H      0.500630000000     0.904880000000     0.711230000000     0.0393797  
H370     H      0.461380000000     0.868860000000     0.737430000000     0.0420711  
H371     H      0.056200000000     0.900570000000     0.742040000000     0.00368622 
H372     H      0.052760000000     0.865320000000     0.788880000000     0.0655263  
H373     H      0.468880000000     0.929520000000     0.729020000000     0.0364544  
H374     H      0.462880000000     0.891960000000     0.774260000000     0.0432013  
H375     H      0.021430000000     0.890040000000     0.806450000000     0.0661117  
H376     H      0.079030000000     0.941350000000     0.767120000000     0.144251   
H377     H      0.984920000000     0.646040000000     0.823900000000     0.0440749  
H378     H      0.455520000000     0.670240000000     0.778640000000     0.0486287  
H379     H      0.048440000000     0.648380000000     0.812090000000     0.00627794 
H380     H      0.059150000000     0.671890000000     0.758300000000     0.059928   
H381     H      0.461920000000     0.614720000000     0.803770000000     0.0417178  
H382     H      0.471230000000     0.640280000000     0.751190000000     0.0499522  
H383     H      0.535020000000     0.640980000000     0.739470000000     0.0667082  
H384     H      0.090680000000     0.626370000000     0.788170000000     0.141559   
H385     H      0.896260000000     0.281260000000     0.058500000000     0.0413203  
H386     H      0.859850000000     0.236290000000     0.053320000000     0.0450125  
H387     H      0.894000000000     0.312750000000     0.003740000000     0.0052453  
H388     H      0.864090000000     0.282930000000     0.461200000000     0.0554959  
H389     H      0.921520000000     0.245910000000     0.060570000000     0.0439032  
H390     H      0.886030000000     0.216500000000     0.524870000000     0.0429432  
H391     H      0.891420000000     0.248950000000     0.465160000000     0.0633877  
H392     H      0.914840000000     0.320050000000     0.455660000000     0.140481   
H393     H      0.636430000000     0.243180000000     0.444690000000     0.0382907  
H394     H      0.619360000000     0.292470000000     0.473340000000     0.0428154  
H395     H      0.633690000000     0.194060000000     0.983240000000     0.00526811 
H396     H      0.614810000000     0.210080000000     0.036750000000     0.0647122  
H397     H      0.671010000000     0.270250000000     0.448050000000     0.0398129  
H398     H      0.652520000000     0.288140000000     0.501820000000     0.0504639  
H399     H      0.649280000000     0.236530000000     0.041640000000     0.0696929  
H400     H      0.678170000000     0.167710000000     0.998670000000     0.145078   
H401     H      0.758000000000     0.364850000000     0.443820000000     0.0400235  
H402     H      0.805310000000     0.393850000000     0.466800000000     0.041813   
H403     H      0.709350000000     0.362910000000     0.484070000000     0.00374361 
H404     H      0.723060000000     0.394760000000     0.031880000000     0.0570466  
H405     H      0.791770000000     0.337380000000     0.450340000000     0.040186   
H406     H      0.806850000000     0.366000000000     0.000400000000     0.0436446  
H407     H      0.756090000000     0.367840000000     0.041690000000     0.0631195  
H408     H      0.687090000000     0.342320000000     0.527240000000     0.138832   
H409     H      0.755210000000     0.112620000000     0.446910000000     0.0387     
H410     H      0.805010000000     0.143370000000     0.455730000000     0.0441577  
H411     H      0.718530000000     0.117200000000     0.499760000000     0.00330256 
H412     H      0.748170000000     0.145980000000     0.043450000000     0.063996   
H413     H      0.788800000000     0.084700000000     0.447770000000     0.0411221  
H414     H      0.817120000000     0.116990000000     0.988030000000     0.0427545  
H415     H      0.781340000000     0.117270000000     0.041180000000     0.0625583  
H416     H      0.707380000000     0.098290000000     0.547750000000     0.144142   
H417     H      0.802680000000     0.004110000000     0.374220000000     0.041112   
H418     H      0.785620000000     0.951260000000     0.396040000000     0.0413987  
H419     H      0.753750000000     0.046240000000     0.375040000000     0.00320046 
H420     H      0.707090000000     0.520240000000     0.402130000000     0.056768   
H421     H      0.802780000000     0.974190000000     0.342800000000     0.0396262  
H422     H      0.753570000000     0.448830000000     0.366310000000     0.0463428  
H423     H      0.704560000000     0.489740000000     0.371000000000     0.0671307  
H424     H      0.707090000000     0.061540000000     0.353850000000     0.140832   
H425     H      0.723180000000     0.492610000000     0.129010000000     0.0418477  
H426     H      0.741580000000     0.451070000000     0.092040000000     0.0419326  
H427     H      0.767030000000     0.043380000000     0.125070000000     0.00909329 
H428     H      0.811290000000     0.028530000000     0.087540000000     0.0567497  
H429     H      0.736590000000     0.458680000000     0.152410000000     0.0433699  
H430     H      0.779170000000     0.446120000000     0.113960000000     0.0417694  
H431     H      0.821930000000     0.993810000000     0.111900000000     0.0638491  
H432     H      0.814200000000     0.061880000000     0.141440000000     0.141762   
H433     H      0.514760000000     0.305870000000     0.391600000000     0.0452708  
H434     H      0.561830000000     0.277300000000     0.415660000000     0.0402359  
H435     H      0.961490000000     0.269290000000     0.391310000000     0.00959175 
H436     H      0.974700000000     0.219440000000     0.420700000000     0.055864   
H437     H      0.545400000000     0.298140000000     0.361540000000     0.042826   
H438     H      0.557440000000     0.245320000000     0.386520000000     0.0428986  
H439     H      0.004950000000     0.208270000000     0.390870000000     0.0621535  
H440     H      0.935930000000     0.227820000000     0.370470000000     0.140511   
H441     H      0.567450000000     0.283360000000     0.135210000000     0.039872   
H442     H      0.554380000000     0.238970000000     0.170880000000     0.0439212  
H443     H      0.516720000000     0.323050000000     0.133520000000     0.00524664 
H444     H      0.970160000000     0.300800000000     0.164530000000     0.0553092  
H445     H      0.565220000000     0.247390000000     0.110990000000     0.0391964  
H446     H      0.022290000000     0.225360000000     0.144680000000     0.0440521  
H447     H      0.969250000000     0.265240000000     0.139290000000     0.0634467  
H448     H      0.469430000000     0.334830000000     0.111530000000     0.141323   
H449     H      0.635630000000     0.005700000000     0.208080000000     0.0389364  
H450     H      0.607680000000     0.053970000000     0.226510000000     0.0481263  
H451     H      0.635590000000     0.463370000000     0.255680000000     0.00115    
H452     H      0.612760000000     0.487010000000     0.305890000000     0.0638416  
H453     H      0.665190000000     0.037750000000     0.209590000000     0.0421132  
H454     H      0.638600000000     0.061380000000     0.256370000000     0.0483581  
H455     H      0.643060000000     0.518770000000     0.305050000000     0.0712715  
H456     H      0.659460000000     0.445260000000     0.299290000000     0.142672   
H457     H      0.881860000000     0.003590000000     0.314000000000     0.0391926  
H458     H      0.863080000000     0.462530000000     0.275330000000     0.0430843  
H459     H      0.880510000000     0.059800000000     0.287330000000     0.00456296 
H460     H      0.861770000000     0.056760000000     0.230700000000     0.0635856  
H461     H      0.915510000000     0.476910000000     0.304220000000     0.0392236  
H462     H      0.896220000000     0.472110000000     0.248150000000     0.0427182  
H463     H      0.895370000000     0.530510000000     0.220890000000     0.0682774  
H464     H      0.904110000000     0.096040000000     0.256960000000     0.138612   
H465     H      0.000630000000     0.404880000000     0.211240000000     0.0392197  
H466     H      0.961370000000     0.368860000000     0.237430000000     0.0421124  
H467     H      0.556200000000     0.400570000000     0.242040000000     0.00368554 
H468     H      0.552760000000     0.365320000000     0.288880000000     0.0655087  
H469     H      0.968880000000     0.429520000000     0.229020000000     0.0364354  
H470     H      0.962880000000     0.391960000000     0.274260000000     0.0432566  
H471     H      0.521430000000     0.390040000000     0.306450000000     0.0661094  
H472     H      0.579030000000     0.441350000000     0.267120000000     0.144238   
H473     H      0.484920000000     0.146040000000     0.323900000000     0.0440433  
H474     H      0.955520000000     0.170240000000     0.278640000000     0.0486279  
H475     H      0.548440000000     0.148380000000     0.312090000000     0.00632434 
H476     H      0.559150000000     0.171890000000     0.258300000000     0.0599345  
H477     H      0.961920000000     0.114720000000     0.303770000000     0.0417236  
H478     H      0.971230000000     0.140280000000     0.251190000000     0.0499766  
H479     H      0.035020000000     0.140980000000     0.239470000000     0.0666943  
H480     H      0.590680000000     0.126370000000     0.288170000000     0.141562   
H481     H      0.896260000000     0.281260000000     0.558500000000     0.0413132  
H482     H      0.859850000000     0.236290000000     0.553320000000     0.0450127  
H483     H      0.894000000000     0.312750000000     0.503740000000     0.0051337  
H484     H      0.864090000000     0.282930000000     0.961200000000     0.0554853  
H485     H      0.921520000000     0.245910000000     0.560570000000     0.0438933  
H486     H      0.886030000000     0.216500000000     0.024870000000     0.0429645  
H487     H      0.891420000000     0.248950000000     0.965160000000     0.0633711  
H488     H      0.914840000000     0.320050000000     0.955660000000     0.140461   
H489     H      0.636430000000     0.243180000000     0.944690000000     0.0382786  
H490     H      0.619360000000     0.292470000000     0.973340000000     0.0428303  
H491     H      0.633690000000     0.194060000000     0.483230000000     0.00527343 
H492     H      0.614810000000     0.210080000000     0.536750000000     0.0647253  
H493     H      0.671010000000     0.270250000000     0.948050000000     0.0397967  
H494     H      0.652520000000     0.288140000000     0.001820000000     0.0505775  
H495     H      0.649280000000     0.236530000000     0.541640000000     0.0697092  
H496     H      0.678170000000     0.167710000000     0.498660000000     0.145083   
H497     H      0.758000000000     0.364850000000     0.943820000000     0.0400136  
H498     H      0.805310000000     0.393850000000     0.966800000000     0.0418448  
H499     H      0.709350000000     0.362910000000     0.984070000000     0.00363409 
H500     H      0.723060000000     0.394760000000     0.531880000000     0.0570073  
H501     H      0.791770000000     0.337380000000     0.950350000000     0.0401752  
H502     H      0.806850000000     0.366000000000     0.500400000000     0.0435244  
H503     H      0.756090000000     0.367840000000     0.541690000000     0.0630989  
H504     H      0.687090000000     0.342320000000     0.027240000000     0.138858   
H505     H      0.755210000000     0.112620000000     0.946910000000     0.0386898  
H506     H      0.805010000000     0.143370000000     0.955730000000     0.044171   
H507     H      0.718530000000     0.117200000000     0.999760000000     0.00318623 
H508     H      0.748170000000     0.145980000000     0.543450000000     0.0639745  
H509     H      0.788800000000     0.084700000000     0.947770000000     0.0411158  
H510     H      0.817120000000     0.116990000000     0.488030000000     0.0427662  
H511     H      0.781340000000     0.117270000000     0.541180000000     0.0625276  
H512     H      0.707380000000     0.098290000000     0.047750000000     0.144164   
H513     H      0.802680000000     0.004110000000     0.874220000000     0.0411125  
H514     H      0.785620000000     0.951260000000     0.896040000000     0.0414029  
H515     H      0.753750000000     0.046240000000     0.875040000000     0.00320062 
H516     H      0.707090000000     0.520240000000     0.902130000000     0.0567687  
H517     H      0.802780000000     0.974190000000     0.842800000000     0.0396269  
H518     H      0.753570000000     0.448830000000     0.866310000000     0.0463436  
H519     H      0.704560000000     0.489740000000     0.871000000000     0.0671322  
H520     H      0.707090000000     0.061540000000     0.853850000000     0.140832   
H521     H      0.723180000000     0.492610000000     0.629010000000     0.0418445  
H522     H      0.741580000000     0.451070000000     0.592040000000     0.0419215  
H523     H      0.767030000000     0.043380000000     0.625070000000     0.00907901 
H524     H      0.811290000000     0.028530000000     0.587540000000     0.0567436  
H525     H      0.736590000000     0.458680000000     0.652410000000     0.0433654  
H526     H      0.779170000000     0.446120000000     0.613960000000     0.0417625  
H527     H      0.821930000000     0.993810000000     0.611900000000     0.0638456  
H528     H      0.814200000000     0.061880000000     0.641450000000     0.141826   
H529     H      0.514760000000     0.305870000000     0.891600000000     0.0452626  
H530     H      0.561830000000     0.277300000000     0.915660000000     0.0402332  
H531     H      0.961490000000     0.269290000000     0.891310000000     0.00961263 
H532     H      0.974700000000     0.219440000000     0.920700000000     0.0558418  
H533     H      0.545400000000     0.298140000000     0.861540000000     0.042817   
H534     H      0.557440000000     0.245320000000     0.886530000000     0.0429042  
H535     H      0.004950000000     0.208270000000     0.890870000000     0.0621389  
H536     H      0.935930000000     0.227820000000     0.870470000000     0.140419   
H537     H      0.567450000000     0.283360000000     0.635210000000     0.0398724  
H538     H      0.554380000000     0.238970000000     0.670880000000     0.0439291  
H539     H      0.516720000000     0.323050000000     0.633520000000     0.00523466 
H540     H      0.970160000000     0.300800000000     0.664530000000     0.0553239  
H541     H      0.565220000000     0.247390000000     0.610990000000     0.0391965  
H542     H      0.022290000000     0.225360000000     0.644680000000     0.0440545  
H543     H      0.969250000000     0.265240000000     0.639300000000     0.0634663  
H544     H      0.469430000000     0.334830000000     0.611520000000     0.141387   
H545     H      0.635630000000     0.005700000000     0.708080000000     0.0389321  
H546     H      0.607680000000     0.053970000000     0.726510000000     0.0481269  
H547     H      0.635590000000     0.463370000000     0.755680000000     0.00114828 
H548     H      0.612760000000     0.487010000000     0.805890000000     0.0638453  
H549     H      0.665190000000     0.037750000000     0.709590000000     0.0421026  
H550     H      0.638600000000     0.061380000000     0.756370000000     0.0483616  
H551     H      0.643060000000     0.518770000000     0.805050000000     0.0712754  
H552     H      0.659460000000     0.445260000000     0.799290000000     0.142672   
H553     H      0.881860000000     0.003590000000     0.814000000000     0.039198   
H554     H      0.863080000000     0.462530000000     0.775330000000     0.0430758  
H555     H      0.880510000000     0.059800000000     0.787330000000     0.00456754 
H556     H      0.861770000000     0.056760000000     0.730700000000     0.0635777  
H557     H      0.915510000000     0.476910000000     0.804220000000     0.0392286  
H558     H      0.896220000000     0.472110000000     0.748150000000     0.0427114  
H559     H      0.895370000000     0.530510000000     0.720890000000     0.0682737  
H560     H      0.904110000000     0.096040000000     0.756960000000     0.138613   
H561     H      0.000630000000     0.404880000000     0.711230000000     0.0392003  
H562     H      0.961370000000     0.368860000000     0.737430000000     0.0421162  
H563     H      0.556200000000     0.400570000000     0.742040000000     0.00370047 
H564     H      0.552760000000     0.365320000000     0.788880000000     0.0655204  
H565     H      0.968880000000     0.429520000000     0.729020000000     0.0364251  
H566     H      0.962880000000     0.391960000000     0.774260000000     0.0432599  
H567     H      0.521430000000     0.390040000000     0.806450000000     0.0661198  
H568     H      0.579030000000     0.441350000000     0.767120000000     0.14425    
H569     H      0.484920000000     0.146040000000     0.823900000000     0.0440402  
H570     H      0.955520000000     0.170240000000     0.778640000000     0.0486246  
H571     H      0.548440000000     0.148380000000     0.812090000000     0.00629593 
H572     H      0.559150000000     0.171890000000     0.758300000000     0.0599248  
H573     H      0.961920000000     0.114720000000     0.803770000000     0.041725   
H574     H      0.971230000000     0.140280000000     0.751190000000     0.0499795  
H575     H      0.035020000000     0.140980000000     0.739470000000     0.0666868  
H576     H      0.590680000000     0.126370000000     0.788170000000     0.14156    
H577     H      0.896260000000     0.781260000000     0.058500000000     0.0413168  
H578     H      0.859850000000     0.736290000000     0.053320000000     0.0450129  
H579     H      0.894000000000     0.812750000000     0.003740000000     0.00524189 
H580     H      0.864090000000     0.782930000000     0.461200000000     0.0554961  
H581     H      0.921520000000     0.745910000000     0.060570000000     0.0438983  
H582     H      0.886030000000     0.716500000000     0.524870000000     0.0429441  
H583     H      0.891420000000     0.748950000000     0.465160000000     0.0633882  
H584     H      0.914840000000     0.820050000000     0.455660000000     0.140481   
H585     H      0.636430000000     0.743180000000     0.444690000000     0.0382917  
H586     H      0.619360000000     0.792470000000     0.473340000000     0.0428134  
H587     H      0.633690000000     0.694060000000     0.983240000000     0.00524214 
H588     H      0.614810000000     0.710080000000     0.036750000000     0.0647048  
H589     H      0.671010000000     0.770250000000     0.448050000000     0.0398133  
H590     H      0.652520000000     0.788140000000     0.501820000000     0.050463   
H591     H      0.649280000000     0.736530000000     0.041640000000     0.069691   
H592     H      0.678170000000     0.667710000000     0.998670000000     0.145083   
H593     H      0.758000000000     0.864850000000     0.443820000000     0.0400365  
H594     H      0.805310000000     0.893860000000     0.466800000000     0.0418103  
H595     H      0.709350000000     0.862910000000     0.484070000000     0.00374482 
H596     H      0.723060000000     0.894760000000     0.031880000000     0.0570473  
H597     H      0.791770000000     0.837380000000     0.450340000000     0.0402007  
H598     H      0.806850000000     0.866000000000     0.000400000000     0.0436379  
H599     H      0.756090000000     0.867840000000     0.041690000000     0.0631185  
H600     H      0.687090000000     0.842320000000     0.527240000000     0.138832   
H601     H      0.755210000000     0.612620000000     0.446910000000     0.0387012  
H602     H      0.805010000000     0.643370000000     0.455730000000     0.0441579  
H603     H      0.718530000000     0.617200000000     0.499760000000     0.00330442 
H604     H      0.748170000000     0.645980000000     0.043450000000     0.0640028  
H605     H      0.788800000000     0.584700000000     0.447770000000     0.0411252  
H606     H      0.817120000000     0.616990000000     0.988030000000     0.0427567  
H607     H      0.781340000000     0.617270000000     0.041180000000     0.0625605  
H608     H      0.707380000000     0.598290000000     0.547750000000     0.144144   
H609     H      0.802680000000     0.504110000000     0.374220000000     0.0411534  
H610     H      0.785620000000     0.451260000000     0.396040000000     0.0413917  
H611     H      0.753750000000     0.546240000000     0.375040000000     0.00320696 
H612     H      0.707090000000     0.020240000000     0.402130000000     0.0567729  
H613     H      0.802780000000     0.474190000000     0.342800000000     0.0396337  
H614     H      0.753570000000     0.948830000000     0.366310000000     0.0463497  
H615     H      0.704560000000     0.989740000000     0.371000000000     0.0671716  
H616     H      0.707090000000     0.561540000000     0.353850000000     0.140833   
H617     H      0.723180000000     0.992610000000     0.129010000000     0.0418554  
H618     H      0.741580000000     0.951070000000     0.092040000000     0.0419346  
H619     H      0.767030000000     0.543370000000     0.125070000000     0.00907725 
H620     H      0.811290000000     0.528530000000     0.087540000000     0.0567796  
H621     H      0.736590000000     0.958680000000     0.152410000000     0.0433698  
H622     H      0.779170000000     0.946120000000     0.113960000000     0.0417733  
H623     H      0.821930000000     0.493810000000     0.111900000000     0.0638216  
H624     H      0.814200000000     0.561880000000     0.141440000000     0.141767   
H625     H      0.514760000000     0.805870000000     0.391600000000     0.0452711  
H626     H      0.561830000000     0.777300000000     0.415660000000     0.0402351  
H627     H      0.961490000000     0.769290000000     0.391310000000     0.00959205 
H628     H      0.974700000000     0.719440000000     0.420700000000     0.0558645  
H629     H      0.545400000000     0.798140000000     0.361540000000     0.042826   
H630     H      0.557440000000     0.745320000000     0.386520000000     0.0428984  
H631     H      0.004950000000     0.708270000000     0.390870000000     0.0621538  
H632     H      0.935930000000     0.727820000000     0.370470000000     0.140511   
H633     H      0.567450000000     0.783360000000     0.135210000000     0.0398586  
H634     H      0.554380000000     0.738970000000     0.170880000000     0.0439235  
H635     H      0.516720000000     0.823050000000     0.133520000000     0.00525309 
H636     H      0.970160000000     0.800800000000     0.164530000000     0.0553057  
H637     H      0.565220000000     0.747390000000     0.110990000000     0.0391894  
H638     H      0.022290000000     0.725360000000     0.144680000000     0.0440575  
H639     H      0.969250000000     0.765240000000     0.139290000000     0.0634447  
H640     H      0.469430000000     0.834830000000     0.111530000000     0.141322   
H641     H      0.635630000000     0.505700000000     0.208080000000     0.0389481  
H642     H      0.607680000000     0.553970000000     0.226510000000     0.0481269  
H643     H      0.635590000000     0.963370000000     0.255680000000     0.00113364 
H644     H      0.612760000000     0.987010000000     0.305890000000     0.0638843  
H645     H      0.665190000000     0.537750000000     0.209590000000     0.0421167  
H646     H      0.638600000000     0.561380000000     0.256370000000     0.0483566  
H647     H      0.643060000000     0.018770000000     0.305050000000     0.0712853  
H648     H      0.659460000000     0.945270000000     0.299290000000     0.142775   
H649     H      0.881860000000     0.503590000000     0.314000000000     0.0392325  
H650     H      0.863080000000     0.962530000000     0.275330000000     0.0430884  
H651     H      0.880510000000     0.559800000000     0.287330000000     0.00456503 
H652     H      0.861770000000     0.556760000000     0.230700000000     0.0635855  
H653     H      0.915510000000     0.976910000000     0.304220000000     0.0392184  
H654     H      0.896220000000     0.972110000000     0.248150000000     0.0427255  
H655     H      0.895370000000     0.030510000000     0.220890000000     0.0682703  
H656     H      0.904110000000     0.596040000000     0.256960000000     0.138612   
H657     H      0.000630000000     0.904880000000     0.211240000000     0.0392219  
H658     H      0.961370000000     0.868860000000     0.237430000000     0.0421128  
H659     H      0.556200000000     0.900570000000     0.242040000000     0.00367988 
H660     H      0.552760000000     0.865320000000     0.288880000000     0.0655126  
H661     H      0.968880000000     0.929520000000     0.229020000000     0.0364393  
H662     H      0.962880000000     0.891960000000     0.274260000000     0.0432583  
H663     H      0.521430000000     0.890040000000     0.306450000000     0.066129   
H664     H      0.579030000000     0.941350000000     0.267120000000     0.144244   
H665     H      0.484920000000     0.646040000000     0.323900000000     0.0440438  
H666     H      0.955520000000     0.670240000000     0.278640000000     0.0486279  
H667     H      0.548440000000     0.648380000000     0.312090000000     0.00632465 
H668     H      0.559150000000     0.671890000000     0.258300000000     0.0599345  
H669     H      0.961920000000     0.614720000000     0.303770000000     0.041724   
H670     H      0.971230000000     0.640280000000     0.251190000000     0.0499769  
H671     H      0.035020000000     0.640980000000     0.239470000000     0.0666949  
H672     H      0.590680000000     0.626370000000     0.288170000000     0.141562   
H673     H      0.896260000000     0.781260000000     0.558500000000     0.0413098  
H674     H      0.859850000000     0.736290000000     0.553320000000     0.045013   
H675     H      0.894000000000     0.812750000000     0.503740000000     0.00513028 
H676     H      0.864090000000     0.782930000000     0.961200000000     0.0554855  
H677     H      0.921520000000     0.745910000000     0.560570000000     0.0438884  
H678     H      0.886030000000     0.716500000000     0.024870000000     0.0429655  
H679     H      0.891420000000     0.748950000000     0.965160000000     0.0633716  
H680     H      0.914840000000     0.820050000000     0.955660000000     0.140461   
H681     H      0.636430000000     0.743180000000     0.944690000000     0.0382796  
H682     H      0.619360000000     0.792470000000     0.973340000000     0.0428284  
H683     H      0.633690000000     0.694060000000     0.483230000000     0.00524746 
H684     H      0.614810000000     0.710080000000     0.536750000000     0.0647179  
H685     H      0.671010000000     0.770250000000     0.948050000000     0.0397971  
H686     H      0.652520000000     0.788140000000     0.001820000000     0.0505766  
H687     H      0.649280000000     0.736530000000     0.541640000000     0.0697073  
H688     H      0.678170000000     0.667710000000     0.498660000000     0.145088   
H689     H      0.758000000000     0.864850000000     0.943820000000     0.0400266  
H690     H      0.805310000000     0.893860000000     0.966800000000     0.0418421  
H691     H      0.709350000000     0.862910000000     0.984070000000     0.0036353  
H692     H      0.723060000000     0.894760000000     0.531880000000     0.057008   
H693     H      0.791770000000     0.837380000000     0.950350000000     0.0401899  
H694     H      0.806850000000     0.866000000000     0.500400000000     0.0435178  
H695     H      0.756090000000     0.867840000000     0.541690000000     0.063098   
H696     H      0.687090000000     0.842320000000     0.027240000000     0.138858   
H697     H      0.755210000000     0.612620000000     0.946910000000     0.038691   
H698     H      0.805010000000     0.643370000000     0.955730000000     0.0441712  
H699     H      0.718530000000     0.617200000000     0.999760000000     0.00318808 
H700     H      0.748170000000     0.645980000000     0.543450000000     0.0639813  
H701     H      0.788800000000     0.584700000000     0.947770000000     0.0411189  
H702     H      0.817120000000     0.616990000000     0.488030000000     0.0427683  
H703     H      0.781340000000     0.617270000000     0.541180000000     0.0625299  
H704     H      0.707380000000     0.598290000000     0.047750000000     0.144166   
H705     H      0.802680000000     0.504110000000     0.874220000000     0.041154   
H706     H      0.785620000000     0.451260000000     0.896040000000     0.0413959  
H707     H      0.753750000000     0.546240000000     0.875040000000     0.00320713 
H708     H      0.707090000000     0.020240000000     0.902130000000     0.0567736  
H709     H      0.802780000000     0.474190000000     0.842800000000     0.0396345  
H710     H      0.753570000000     0.948830000000     0.866310000000     0.0463505  
H711     H      0.704560000000     0.989740000000     0.871000000000     0.0671732  
H712     H      0.707090000000     0.561540000000     0.853850000000     0.140832   
H713     H      0.723180000000     0.992610000000     0.629010000000     0.0418523  
H714     H      0.741580000000     0.951070000000     0.592040000000     0.0419235  
H715     H      0.767030000000     0.543370000000     0.625070000000     0.00906296 
H716     H      0.811290000000     0.528530000000     0.587540000000     0.0567736  
H717     H      0.736590000000     0.958680000000     0.652410000000     0.0433653  
H718     H      0.779170000000     0.946120000000     0.613960000000     0.0417664  
H719     H      0.821930000000     0.493810000000     0.611900000000     0.063818   
H720     H      0.814200000000     0.561880000000     0.641450000000     0.141831   
H721     H      0.514760000000     0.805870000000     0.891600000000     0.0452629  
H722     H      0.561830000000     0.777300000000     0.915660000000     0.0402323  
H723     H      0.961490000000     0.769290000000     0.891310000000     0.00961294 
H724     H      0.974700000000     0.719440000000     0.920700000000     0.0558423  
H725     H      0.545400000000     0.798140000000     0.861540000000     0.042817   
H726     H      0.557440000000     0.745320000000     0.886530000000     0.0429039  
H727     H      0.004950000000     0.708270000000     0.890870000000     0.0621392  
H728     H      0.935930000000     0.727820000000     0.870470000000     0.140419   
H729     H      0.567450000000     0.783360000000     0.635210000000     0.039859   
H730     H      0.554380000000     0.738970000000     0.670880000000     0.0439314  
H731     H      0.516720000000     0.823050000000     0.633520000000     0.00524111 
H732     H      0.970160000000     0.800800000000     0.664530000000     0.0553204  
H733     H      0.565220000000     0.747390000000     0.610990000000     0.0391895  
H734     H      0.022290000000     0.725360000000     0.644680000000     0.0440599  
H735     H      0.969250000000     0.765240000000     0.639300000000     0.0634643  
H736     H      0.469430000000     0.834830000000     0.611520000000     0.141385   
H737     H      0.635630000000     0.505700000000     0.708080000000     0.0389437  
H738     H      0.607680000000     0.553970000000     0.726510000000     0.0481275  
H739     H      0.635590000000     0.963370000000     0.755680000000     0.00113193 
H740     H      0.612760000000     0.987010000000     0.805890000000     0.063888   
H741     H      0.665190000000     0.537750000000     0.709590000000     0.0421062  
H742     H      0.638600000000     0.561380000000     0.756370000000     0.0483601  
H743     H      0.643060000000     0.018770000000     0.805050000000     0.0712892  
H744     H      0.659460000000     0.945270000000     0.799290000000     0.142775   
H745     H      0.881860000000     0.503590000000     0.814000000000     0.0392379  
H746     H      0.863080000000     0.962530000000     0.775330000000     0.0430799  
H747     H      0.880510000000     0.559800000000     0.787330000000     0.00456961 
H748     H      0.861770000000     0.556760000000     0.730700000000     0.0635777  
H749     H      0.915510000000     0.976910000000     0.804220000000     0.0392234  
H750     H      0.896220000000     0.972110000000     0.748150000000     0.0427188  
H751     H      0.895370000000     0.030510000000     0.720890000000     0.0682667  
H752     H      0.904110000000     0.596040000000     0.756960000000     0.138613   
H753     H      0.000630000000     0.904880000000     0.711230000000     0.0392024  
H754     H      0.961370000000     0.868860000000     0.737430000000     0.0421166  
H755     H      0.556200000000     0.900570000000     0.742040000000     0.00369479 
H756     H      0.552760000000     0.865320000000     0.788880000000     0.0655243  
H757     H      0.968880000000     0.929520000000     0.729020000000     0.0364289  
H758     H      0.962880000000     0.891960000000     0.774260000000     0.0432616  
H759     H      0.521430000000     0.890040000000     0.806450000000     0.0661395  
H760     H      0.579030000000     0.941350000000     0.767120000000     0.144256   
H761     H      0.484920000000     0.646040000000     0.823900000000     0.0440407  
H762     H      0.955520000000     0.670240000000     0.778640000000     0.0486246  
H763     H      0.548440000000     0.648380000000     0.812090000000     0.00629624 
H764     H      0.559150000000     0.671890000000     0.758300000000     0.0599248  
H765     H      0.961920000000     0.614720000000     0.803770000000     0.0417254  
H766     H      0.971230000000     0.640280000000     0.751190000000     0.0499799  
H767     H      0.035020000000     0.640980000000     0.739470000000     0.0666874  
H768     H      0.590680000000     0.626370000000     0.788170000000     0.14156    
N1       N      0.424730000000     0.273810000000     0.516760000000    -0.185771   
N2       N      0.359690000000     0.255500000000     0.505010000000    -0.163625   
N3       N      0.171790000000     0.228590000000     0.479120000000    -0.191458   
N4       N      0.115070000000     0.253160000000     0.007270000000    -0.163417   
N5       N      0.251470000000     0.333660000000     0.983900000000    -0.188708   
N6       N      0.265390000000     0.396710000000     0.000750000000    -0.165371   
N7       N      0.256930000000     0.084560000000     0.989430000000    -0.188845   
N8       N      0.277630000000     0.147520000000     0.000120000000    -0.164993   
N9       N      0.263250000000     0.008930000000     0.341520000000    -0.186944   
N10      N      0.245670000000     0.984890000000     0.401590000000    -0.164827   
N11      N      0.267990000000     0.000640000000     0.153020000000    -0.185722   
N12      N      0.276970000000     0.989420000000     0.087260000000    -0.164641   
N13      N      0.501680000000     0.268610000000     0.359150000000    -0.185463   
N14      N      0.518960000000     0.247320000000     0.420570000000    -0.164818   
N15      N      0.025350000000     0.281030000000     0.105900000000    -0.187255   
N16      N      0.510380000000     0.267850000000     0.170190000000    -0.164136   
N17      N      0.168980000000     0.501330000000     0.246710000000    -0.187314   
N18      N      0.107830000000     0.522090000000     0.267770000000    -0.162958   
N19      N      0.417360000000     0.024410000000     0.283090000000    -0.188536   
N20      N      0.360050000000     0.508710000000     0.251110000000    -0.1637     
N21      N      0.015300000000     0.429970000000     0.253260000000    -0.190072   
N22      N      0.005420000000     0.364090000000     0.265520000000    -0.162934   
N23      N      0.513980000000     0.113880000000     0.296570000000    -0.186883   
N24      N      0.006840000000     0.174090000000     0.266640000000    -0.162039   
N25      N      0.424730000000     0.273810000000     0.016760000000    -0.185694   
N26      N      0.359690000000     0.255500000000     0.005010000000    -0.163599   
N27      N      0.171790000000     0.228590000000     0.979120000000    -0.191437   
N28      N      0.115070000000     0.253160000000     0.507270000000    -0.163474   
N29      N      0.251470000000     0.333660000000     0.483900000000    -0.188653   
N30      N      0.265390000000     0.396710000000     0.500750000000    -0.165507   
N31      N      0.256930000000     0.084560000000     0.489430000000    -0.188796   
N32      N      0.277630000000     0.147520000000     0.500120000000    -0.165132   
N33      N      0.263250000000     0.008930000000     0.841520000000    -0.186943   
N34      N      0.245670000000     0.984890000000     0.901590000000    -0.164764   
N35      N      0.267990000000     0.000640000000     0.653010000000    -0.185657   
N36      N      0.276970000000     0.989420000000     0.587260000000    -0.164651   
N37      N      0.501680000000     0.268610000000     0.859150000000    -0.185518   
N38      N      0.518960000000     0.247320000000     0.920570000000    -0.164816   
N39      N      0.025350000000     0.281030000000     0.605900000000    -0.187251   
N40      N      0.510380000000     0.267850000000     0.670190000000    -0.164064   
N41      N      0.168980000000     0.501330000000     0.746710000000    -0.187324   
N42      N      0.107830000000     0.522090000000     0.767770000000    -0.162951   
N43      N      0.417360000000     0.024410000000     0.783090000000    -0.188527   
N44      N      0.360050000000     0.508710000000     0.751110000000    -0.163704   
N45      N      0.015300000000     0.429970000000     0.753260000000    -0.190075   
N46      N      0.005420000000     0.364090000000     0.765520000000    -0.162923   
N47      N      0.513980000000     0.113880000000     0.796570000000    -0.186877   
N48      N      0.006840000000     0.174090000000     0.766640000000    -0.162043   
N49      N      0.424730000000     0.773810000000     0.516760000000    -0.185818   
N50      N      0.359690000000     0.755500000000     0.505010000000    -0.163622   
N51      N      0.171790000000     0.728590000000     0.479120000000    -0.19144    
N52      N      0.115070000000     0.753160000000     0.007270000000    -0.163429   
N53      N      0.251470000000     0.833650000000     0.983900000000    -0.18885    
N54      N      0.265390000000     0.896710000000     0.000750000000    -0.165376   
N55      N      0.256930000000     0.584560000000     0.989430000000    -0.188842   
N56      N      0.277630000000     0.647520000000     0.000120000000    -0.164999   
N57      N      0.263250000000     0.508930000000     0.341520000000    -0.186924   
N58      N      0.245670000000     0.484890000000     0.401590000000    -0.164853   
N59      N      0.267990000000     0.500640000000     0.153020000000    -0.185712   
N60      N      0.276970000000     0.489420000000     0.087260000000    -0.164656   
N61      N      0.501680000000     0.768610000000     0.359150000000    -0.185463   
N62      N      0.518960000000     0.747320000000     0.420570000000    -0.164819   
N63      N      0.025350000000     0.781020000000     0.105900000000    -0.187259   
N64      N      0.510380000000     0.767850000000     0.170190000000    -0.164137   
N65      N      0.168980000000     0.001330000000     0.246710000000    -0.187333   
N66      N      0.107830000000     0.022090000000     0.267770000000    -0.162949   
N67      N      0.417360000000     0.524410000000     0.283090000000    -0.188514   
N68      N      0.360050000000     0.008710000000     0.251110000000    -0.163709   
N69      N      0.015300000000     0.929970000000     0.253260000000    -0.190072   
N70      N      0.005420000000     0.864090000000     0.265520000000    -0.162931   
N71      N      0.513980000000     0.613880000000     0.296570000000    -0.186883   
N72      N      0.006840000000     0.674090000000     0.266640000000    -0.162039   
N73      N      0.424730000000     0.773810000000     0.016760000000    -0.185741   
N74      N      0.359690000000     0.755500000000     0.005010000000    -0.163596   
N75      N      0.171790000000     0.728590000000     0.979120000000    -0.19142    
N76      N      0.115070000000     0.753160000000     0.507270000000    -0.163485   
N77      N      0.251470000000     0.833650000000     0.483900000000    -0.188794   
N78      N      0.265390000000     0.896710000000     0.500750000000    -0.165513   
N79      N      0.256930000000     0.584560000000     0.489430000000    -0.188793   
N80      N      0.277630000000     0.647520000000     0.500120000000    -0.165138   
N81      N      0.263250000000     0.508930000000     0.841520000000    -0.186923   
N82      N      0.245670000000     0.484890000000     0.901590000000    -0.16479    
N83      N      0.267990000000     0.500640000000     0.653010000000    -0.185647   
N84      N      0.276970000000     0.489420000000     0.587260000000    -0.164667   
N85      N      0.501680000000     0.768610000000     0.859150000000    -0.185518   
N86      N      0.518960000000     0.747320000000     0.920570000000    -0.164817   
N87      N      0.025350000000     0.781020000000     0.605900000000    -0.187256   
N88      N      0.510380000000     0.767850000000     0.670190000000    -0.164064   
N89      N      0.168980000000     0.001330000000     0.746710000000    -0.187342   
N90      N      0.107830000000     0.022090000000     0.767770000000    -0.162942   
N91      N      0.417360000000     0.524410000000     0.783090000000    -0.188506   
N92      N      0.360050000000     0.008710000000     0.751110000000    -0.163713   
N93      N      0.015300000000     0.929970000000     0.753260000000    -0.190076   
N94      N      0.005420000000     0.864090000000     0.765520000000    -0.16292    
N95      N      0.513980000000     0.613880000000     0.796570000000    -0.186877   
N96      N      0.006840000000     0.674090000000     0.766640000000    -0.162043   
N97      N      0.924720000000     0.273810000000     0.516760000000    -0.185694   
N98      N      0.859690000000     0.255500000000     0.505010000000    -0.163622   
N99      N      0.671790000000     0.228590000000     0.479120000000    -0.191461   
N100     N      0.615070000000     0.253160000000     0.007270000000    -0.163353   
N101     N      0.751470000000     0.333660000000     0.983900000000    -0.18871    
N102     N      0.765390000000     0.396710000000     0.000750000000    -0.165376   
N103     N      0.756930000000     0.084560000000     0.989430000000    -0.188858   
N104     N      0.777630000000     0.147520000000     0.000120000000    -0.164981   
N105     N      0.763260000000     0.008930000000     0.341520000000    -0.186936   
N106     N      0.745670000000     0.984890000000     0.401590000000    -0.16477    
N107     N      0.767990000000     0.000640000000     0.153020000000    -0.185721   
N108     N      0.776960000000     0.989420000000     0.087260000000    -0.164662   
N109     N      0.001680000000     0.268610000000     0.359150000000    -0.185503   
N110     N      0.018970000000     0.247320000000     0.420570000000    -0.164898   
N111     N      0.525350000000     0.281030000000     0.105900000000    -0.18728    
N112     N      0.010380000000     0.267850000000     0.170190000000    -0.164204   
N113     N      0.668980000000     0.501330000000     0.246710000000    -0.187318   
N114     N      0.607830000000     0.522090000000     0.267770000000    -0.162958   
N115     N      0.917360000000     0.024410000000     0.283090000000    -0.188518   
N116     N      0.860050000000     0.508710000000     0.251110000000    -0.163703   
N117     N      0.515300000000     0.429970000000     0.253260000000    -0.189967   
N118     N      0.505420000000     0.364090000000     0.265520000000    -0.162912   
N119     N      0.013980000000     0.113880000000     0.296570000000    -0.186953   
N120     N      0.506840000000     0.174090000000     0.266640000000    -0.161991   
N121     N      0.924720000000     0.273810000000     0.016760000000    -0.185617   
N122     N      0.859690000000     0.255500000000     0.005010000000    -0.163595   
N123     N      0.671790000000     0.228590000000     0.979120000000    -0.191441   
N124     N      0.615070000000     0.253160000000     0.507270000000    -0.16341    
N125     N      0.751470000000     0.333660000000     0.483900000000    -0.188654   
N126     N      0.765390000000     0.396710000000     0.500750000000    -0.165513   
N127     N      0.756930000000     0.084560000000     0.489430000000    -0.188809   
N128     N      0.777630000000     0.147520000000     0.500120000000    -0.16512    
N129     N      0.763260000000     0.008930000000     0.841520000000    -0.186935   
N130     N      0.745670000000     0.984890000000     0.901590000000    -0.164707   
N131     N      0.767990000000     0.000640000000     0.653010000000    -0.185656   
N132     N      0.776960000000     0.989420000000     0.587260000000    -0.164672   
N133     N      0.001680000000     0.268610000000     0.859150000000    -0.185558   
N134     N      0.018970000000     0.247320000000     0.920570000000    -0.164897   
N135     N      0.525350000000     0.281030000000     0.605900000000    -0.187277   
N136     N      0.010380000000     0.267850000000     0.670190000000    -0.164132   
N137     N      0.668980000000     0.501330000000     0.746710000000    -0.187327   
N138     N      0.607830000000     0.522090000000     0.767770000000    -0.162951   
N139     N      0.917360000000     0.024410000000     0.783090000000    -0.188509   
N140     N      0.860050000000     0.508710000000     0.751110000000    -0.163707   
N141     N      0.515300000000     0.429970000000     0.753260000000    -0.18997    
N142     N      0.505420000000     0.364090000000     0.765520000000    -0.162902   
N143     N      0.013980000000     0.113880000000     0.796570000000    -0.186947   
N144     N      0.506840000000     0.174090000000     0.766640000000    -0.161995   
N145     N      0.924720000000     0.773810000000     0.516760000000    -0.185741   
N146     N      0.859690000000     0.755500000000     0.505010000000    -0.163618   
N147     N      0.671790000000     0.728590000000     0.479120000000    -0.191444   
N148     N      0.615070000000     0.753160000000     0.007270000000    -0.163365   
N149     N      0.751470000000     0.833650000000     0.983900000000    -0.188851   
N150     N      0.765390000000     0.896710000000     0.000750000000    -0.165382   
N151     N      0.756930000000     0.584560000000     0.989430000000    -0.188855   
N152     N      0.777630000000     0.647520000000     0.000120000000    -0.164987   
N153     N      0.763260000000     0.508930000000     0.341520000000    -0.186916   
N154     N      0.745670000000     0.484890000000     0.401590000000    -0.164797   
N155     N      0.767990000000     0.500640000000     0.153020000000    -0.185711   
N156     N      0.776960000000     0.489420000000     0.087260000000    -0.164677   
N157     N      0.001680000000     0.768610000000     0.359150000000    -0.185503   
N158     N      0.018970000000     0.747320000000     0.420570000000    -0.1649     
N159     N      0.525350000000     0.781020000000     0.105900000000    -0.187285   
N160     N      0.010380000000     0.767850000000     0.170190000000    -0.164204   
N161     N      0.668980000000     0.001330000000     0.246710000000    -0.187337   
N162     N      0.607830000000     0.022090000000     0.267770000000    -0.162948   
N163     N      0.917360000000     0.524410000000     0.283090000000    -0.188497   
N164     N      0.860050000000     0.008710000000     0.251110000000    -0.163712   
N165     N      0.515300000000     0.929970000000     0.253260000000    -0.189967   
N166     N      0.505420000000     0.864090000000     0.265520000000    -0.162909   
N167     N      0.013980000000     0.613880000000     0.296570000000    -0.186953   
N168     N      0.506840000000     0.674090000000     0.266640000000    -0.161991   
N169     N      0.924720000000     0.773810000000     0.016760000000    -0.185664   
N170     N      0.859690000000     0.755500000000     0.005010000000    -0.163592   
N171     N      0.671790000000     0.728590000000     0.979120000000    -0.191423   
N172     N      0.615070000000     0.753160000000     0.507270000000    -0.163421   
N173     N      0.751470000000     0.833650000000     0.483900000000    -0.188796   
N174     N      0.765390000000     0.896710000000     0.500750000000    -0.165519   
N175     N      0.756930000000     0.584560000000     0.489430000000    -0.188806   
N176     N      0.777630000000     0.647520000000     0.500120000000    -0.165126   
N177     N      0.763260000000     0.508930000000     0.841520000000    -0.186915   
N178     N      0.745670000000     0.484890000000     0.901590000000    -0.164734   
N179     N      0.767990000000     0.500640000000     0.653010000000    -0.185646   
N180     N      0.776960000000     0.489420000000     0.587260000000    -0.164688   
N181     N      0.001680000000     0.768610000000     0.859150000000    -0.185558   
N182     N      0.018970000000     0.747320000000     0.920570000000    -0.164898   
N183     N      0.525350000000     0.781020000000     0.605900000000    -0.187281   
N184     N      0.010380000000     0.767850000000     0.670190000000    -0.164132   
N185     N      0.668980000000     0.001330000000     0.746710000000    -0.187346   
N186     N      0.607830000000     0.022090000000     0.767770000000    -0.162942   
N187     N      0.917360000000     0.524410000000     0.783090000000    -0.188488   
N188     N      0.860050000000     0.008710000000     0.751110000000    -0.163716   
N189     N      0.515300000000     0.929970000000     0.753260000000    -0.189971   
N190     N      0.505420000000     0.864090000000     0.765520000000    -0.162899   
N191     N      0.013980000000     0.613880000000     0.796570000000    -0.186947   
N192     N      0.506840000000     0.674090000000     0.766640000000    -0.161995   
Ni1      Ni     0.510140000000     0.028930000000     0.247150000000     1.0024     
Ni2      Ni     0.514710000000     0.515070000000     0.302870000000     1.01001    
Ni3      Ni     0.034660000000     0.269250000000     0.265980000000     1.01106    
Ni4      Ni     0.476390000000     0.268930000000     0.263190000000     0.984407   
Ni5      Ni     0.263330000000     0.033710000000     0.245630000000     1.00252    
Ni6      Ni     0.265730000000     0.476330000000     0.248920000000     1.01698    
Ni7      Ni     0.289620000000     0.991490000000     0.989490000000     1.00922    
Ni8      Ni     0.232250000000     0.989560000000     0.499540000000     1.00716    
Ni9      Ni     0.017130000000     0.235970000000     0.018850000000     0.995193   
Ni10     Ni     0.022890000000     0.292090000000     0.507700000000     1.00783    
Ni11     Ni     0.270340000000     0.239510000000     0.463800000000     1.00698    
Ni12     Ni     0.261090000000     0.242210000000     0.020640000000     1.0108     
Ni13     Ni     0.510140000000     0.028930000000     0.747150000000     1.00225    
Ni14     Ni     0.514710000000     0.515070000000     0.802860000000     1.00992    
Ni15     Ni     0.034660000000     0.269250000000     0.765980000000     1.01106    
Ni16     Ni     0.476390000000     0.268930000000     0.763190000000     0.984405   
Ni17     Ni     0.263330000000     0.033710000000     0.745630000000     1.00253    
Ni18     Ni     0.265730000000     0.476330000000     0.748920000000     1.01698    
Ni19     Ni     0.289620000000     0.991490000000     0.489500000000     1.00929    
Ni20     Ni     0.232250000000     0.989560000000     0.999540000000     1.00696    
Ni21     Ni     0.017130000000     0.235970000000     0.518840000000     0.995128   
Ni22     Ni     0.022890000000     0.292090000000     0.007710000000     1.00794    
Ni23     Ni     0.270340000000     0.239510000000     0.963800000000     1.00687    
Ni24     Ni     0.261090000000     0.242210000000     0.520640000000     1.01073    
Ni25     Ni     0.510140000000     0.528930000000     0.247150000000     1.00243    
Ni26     Ni     0.514710000000     0.015070000000     0.302870000000     1.00997    
Ni27     Ni     0.034660000000     0.769250000000     0.265980000000     1.01106    
Ni28     Ni     0.476390000000     0.768930000000     0.263190000000     0.984406   
Ni29     Ni     0.263330000000     0.533710000000     0.245630000000     1.00256    
Ni30     Ni     0.265730000000     0.976330000000     0.248920000000     1.017      
Ni31     Ni     0.289620000000     0.491490000000     0.989490000000     1.00917    
Ni32     Ni     0.232250000000     0.489560000000     0.499540000000     1.00712    
Ni33     Ni     0.017130000000     0.735970000000     0.018850000000     0.995252   
Ni34     Ni     0.022890000000     0.792090000000     0.507700000000     1.00786    
Ni35     Ni     0.270340000000     0.739510000000     0.463800000000     1.00682    
Ni36     Ni     0.261090000000     0.742210000000     0.020640000000     1.01064    
Ni37     Ni     0.510140000000     0.528930000000     0.747150000000     1.00228    
Ni38     Ni     0.514710000000     0.015070000000     0.802860000000     1.00988    
Ni39     Ni     0.034660000000     0.769250000000     0.765980000000     1.01106    
Ni40     Ni     0.476390000000     0.768930000000     0.763190000000     0.984405   
Ni41     Ni     0.263330000000     0.533710000000     0.745630000000     1.00257    
Ni42     Ni     0.265730000000     0.976330000000     0.748920000000     1.017      
Ni43     Ni     0.289620000000     0.491490000000     0.489500000000     1.00925    
Ni44     Ni     0.232250000000     0.489560000000     0.999540000000     1.00692    
Ni45     Ni     0.017130000000     0.735970000000     0.518840000000     0.995187   
Ni46     Ni     0.022890000000     0.792090000000     0.007710000000     1.00796    
Ni47     Ni     0.270340000000     0.739510000000     0.963800000000     1.00671    
Ni48     Ni     0.261090000000     0.742210000000     0.520640000000     1.01058    
Ni49     Ni     0.010140000000     0.028930000000     0.247150000000     1.00223    
Ni50     Ni     0.014710000000     0.515070000000     0.302870000000     1.00986    
Ni51     Ni     0.534660000000     0.269250000000     0.265980000000     1.01125    
Ni52     Ni     0.976390000000     0.268930000000     0.263190000000     0.984499   
Ni53     Ni     0.763330000000     0.033710000000     0.245630000000     1.00256    
Ni54     Ni     0.765730000000     0.476330000000     0.248920000000     1.01678    
Ni55     Ni     0.789630000000     0.991490000000     0.989490000000     1.00929    
Ni56     Ni     0.732250000000     0.989560000000     0.499540000000     1.00728    
Ni57     Ni     0.517130000000     0.235970000000     0.018850000000     0.995401   
Ni58     Ni     0.522890000000     0.292090000000     0.507700000000     1.00798    
Ni59     Ni     0.770340000000     0.239510000000     0.463800000000     1.00717    
Ni60     Ni     0.761090000000     0.242210000000     0.020640000000     1.01077    
Ni61     Ni     0.010140000000     0.028930000000     0.747150000000     1.00208    
Ni62     Ni     0.014710000000     0.515070000000     0.802860000000     1.00978    
Ni63     Ni     0.534660000000     0.269250000000     0.765980000000     1.01125    
Ni64     Ni     0.976390000000     0.268930000000     0.763190000000     0.984498   
Ni65     Ni     0.763330000000     0.033710000000     0.745630000000     1.00256    
Ni66     Ni     0.765730000000     0.476330000000     0.748920000000     1.01678    
Ni67     Ni     0.789630000000     0.991490000000     0.489500000000     1.00936    
Ni68     Ni     0.732250000000     0.989560000000     0.999540000000     1.00708    
Ni69     Ni     0.517130000000     0.235970000000     0.518840000000     0.995336   
Ni70     Ni     0.522890000000     0.292090000000     0.007710000000     1.00809    
Ni71     Ni     0.770340000000     0.239510000000     0.963800000000     1.00706    
Ni72     Ni     0.761090000000     0.242210000000     0.520640000000     1.0107     
Ni73     Ni     0.010140000000     0.528930000000     0.247150000000     1.00226    
Ni74     Ni     0.014710000000     0.015070000000     0.302870000000     1.00982    
Ni75     Ni     0.534660000000     0.769250000000     0.265980000000     1.01125    
Ni76     Ni     0.976390000000     0.768930000000     0.263190000000     0.984499   
Ni77     Ni     0.763330000000     0.533710000000     0.245630000000     1.0026     
Ni78     Ni     0.765730000000     0.976330000000     0.248920000000     1.0168     
Ni79     Ni     0.789630000000     0.491490000000     0.989490000000     1.00925    
Ni80     Ni     0.732250000000     0.489560000000     0.499540000000     1.00724    
Ni81     Ni     0.517130000000     0.735970000000     0.018850000000     0.99546    
Ni82     Ni     0.522890000000     0.792090000000     0.507700000000     1.00801    
Ni83     Ni     0.770340000000     0.739510000000     0.463800000000     1.00702    
Ni84     Ni     0.761090000000     0.742210000000     0.020640000000     1.01062    
Ni85     Ni     0.010140000000     0.528930000000     0.747150000000     1.00211    
Ni86     Ni     0.014710000000     0.015070000000     0.802860000000     1.00974    
Ni87     Ni     0.534660000000     0.769250000000     0.765980000000     1.01125    
Ni88     Ni     0.976390000000     0.768930000000     0.763190000000     0.984497   
Ni89     Ni     0.763330000000     0.533710000000     0.745630000000     1.00261    
Ni90     Ni     0.765730000000     0.976330000000     0.748920000000     1.0168     
Ni91     Ni     0.789630000000     0.491490000000     0.489500000000     1.00932    
Ni92     Ni     0.732250000000     0.489560000000     0.999540000000     1.00704    
Ni93     Ni     0.517130000000     0.735970000000     0.518840000000     0.995395   
Ni94     Ni     0.522890000000     0.792090000000     0.007710000000     1.00812    
Ni95     Ni     0.770340000000     0.739510000000     0.963800000000     1.0069     
Ni96     Ni     0.761090000000     0.742210000000     0.520640000000     1.01055    
O1       O      0.012990000000     0.073450000000     0.259310000000    -0.440162   
O2       O      0.507400000000     0.482940000000     0.238710000000    -0.446052   
O3       O      0.463850000000     0.030870000000     0.253280000000    -0.440325   
O4       O      0.057010000000     0.527430000000     0.245120000000    -0.446853   
O5       O      0.061180000000     0.017090000000     0.297780000000    -0.443921   
O6       O      0.467780000000     0.513120000000     0.303970000000    -0.451771   
O7       O      0.016700000000     0.470690000000     0.290320000000    -0.439522   
O8       O      0.512940000000     0.060820000000     0.311710000000    -0.442013   
O9       O      0.035040000000     0.267750000000     0.219740000000    -0.45038    
O10      O      0.030480000000     0.270400000000     0.311910000000    -0.455033   
O11      O      0.033190000000     0.223020000000     0.266640000000    -0.449886   
O12      O      0.032440000000     0.315550000000     0.265530000000    -0.448882   
O13      O      0.477980000000     0.315550000000     0.263220000000    -0.44133    
O14      O      0.478830000000     0.222350000000     0.263320000000    -0.437926   
O15      O      0.476080000000     0.267840000000     0.309670000000    -0.429636   
O16      O      0.480610000000     0.269980000000     0.216990000000    -0.445047   
O17      O      0.310090000000     0.033680000000     0.249050000000    -0.44702    
O18      O      0.216750000000     0.029650000000     0.241590000000    -0.448315   
O19      O      0.259000000000     0.033690000000     0.292060000000    -0.432377   
O20      O      0.267910000000     0.029830000000     0.199880000000    -0.438331   
O21      O      0.264330000000     0.476180000000     0.202510000000    -0.452037   
O22      O      0.267170000000     0.480510000000     0.294650000000    -0.453705   
O23      O      0.218910000000     0.476600000000     0.250430000000    -0.437213   
O24      O      0.312380000000     0.479890000000     0.248360000000    -0.451553   
O25      O      0.295220000000     0.496430000000     0.035460000000    -0.44564    
O26      O      0.280090000000     0.986020000000     0.444810000000    -0.454112   
O27      O      0.285130000000     0.037220000000     0.984720000000    -0.455775   
O28      O      0.290100000000     0.445590000000     0.493910000000    -0.453142   
O29      O      0.235830000000     0.443520000000     0.999560000000    -0.452028   
O30      O      0.232870000000     0.035810000000     0.500050000000    -0.436955   
O31      O      0.226400000000     0.490400000000     0.453320000000    -0.445924   
O32      O      0.242040000000     0.988390000000     0.044510000000    -0.447987   
O33      O      0.523300000000     0.245870000000     0.063570000000    -0.449737   
O34      O      0.011630000000     0.230060000000     0.472760000000    -0.440816   
O35      O      0.063690000000     0.232380000000     0.014500000000    -0.447103   
O36      O      0.470990000000     0.243430000000     0.523440000000    -0.448183   
O37      O      0.475880000000     0.294380000000     0.006790000000    -0.429216   
O38      O      0.069480000000     0.285550000000     0.508060000000    -0.446523   
O39      O      0.523540000000     0.281720000000     0.463030000000    -0.450822   
O40      O      0.022080000000     0.298820000000     0.053680000000    -0.436475   
O41      O      0.276630000000     0.193790000000     0.469600000000    -0.450774   
O42      O      0.264280000000     0.284970000000     0.461940000000    -0.458398   
O43      O      0.315760000000     0.246800000000     0.471980000000    -0.450843   
O44      O      0.223760000000     0.233740000000     0.459250000000    -0.449575   
O45      O      0.215760000000     0.234200000000     0.012530000000    -0.438454   
O46      O      0.307620000000     0.249110000000     0.025130000000    -0.445977   
O47      O      0.253650000000     0.287660000000     0.014660000000    -0.43609    
O48      O      0.267900000000     0.196840000000     0.022600000000    -0.451901   
O49      O      0.426440000000     0.302020000000     0.466610000000    -0.273418   
O50      O      0.171090000000     0.183600000000     0.015230000000    -0.280694   
O51      O      0.208130000000     0.331190000000     0.022650000000    -0.273711   
O52      O      0.225670000000     0.085690000000     0.038170000000    -0.273096   
O53      O      0.216650000000     0.543660000000     0.340920000000    -0.2709     
O54      O      0.309860000000     0.040700000000     0.151900000000    -0.272997   
O55      O      0.456390000000     0.232050000000     0.358200000000    -0.272139   
O56      O      0.478590000000     0.315080000000     0.101310000000    -0.275136   
O57      O      0.171970000000     0.463970000000     0.290680000000    -0.269344   
O58      O      0.418230000000     0.076550000000     0.258450000000    -0.276417   
O59      O      0.065870000000     0.428290000000     0.282500000000    -0.279328   
O60      O      0.070790000000     0.113180000000     0.284100000000    -0.280458   
O61      O      0.012990000000     0.073450000000     0.759310000000    -0.440133   
O62      O      0.507400000000     0.482940000000     0.738710000000    -0.446034   
O63      O      0.463850000000     0.030870000000     0.753280000000    -0.4403     
O64      O      0.057010000000     0.527430000000     0.745120000000    -0.446831   
O65      O      0.061180000000     0.017090000000     0.797780000000    -0.443895   
O66      O      0.467780000000     0.513120000000     0.803970000000    -0.451731   
O67      O      0.016700000000     0.470690000000     0.790320000000    -0.439518   
O68      O      0.512940000000     0.060820000000     0.811710000000    -0.441955   
O69      O      0.035040000000     0.267750000000     0.719740000000    -0.450462   
O70      O      0.030480000000     0.270400000000     0.811910000000    -0.454958   
O71      O      0.033190000000     0.223020000000     0.766640000000    -0.449881   
O72      O      0.032440000000     0.315550000000     0.765530000000    -0.448881   
O73      O      0.477980000000     0.315550000000     0.763220000000    -0.441328   
O74      O      0.478830000000     0.222350000000     0.763310000000    -0.437914   
O75      O      0.476080000000     0.267840000000     0.809670000000    -0.429557   
O76      O      0.480610000000     0.269980000000     0.716990000000    -0.445111   
O77      O      0.310090000000     0.033680000000     0.749060000000    -0.447017   
O78      O      0.216750000000     0.029650000000     0.741600000000    -0.448349   
O79      O      0.259000000000     0.033690000000     0.792060000000    -0.432353   
O80      O      0.267910000000     0.029830000000     0.699880000000    -0.438326   
O81      O      0.264330000000     0.476180000000     0.702510000000    -0.452014   
O82      O      0.267170000000     0.480510000000     0.794650000000    -0.453698   
O83      O      0.218910000000     0.476600000000     0.750430000000    -0.437225   
O84      O      0.312380000000     0.479890000000     0.748360000000    -0.451554   
O85      O      0.295220000000     0.496430000000     0.535460000000    -0.445831   
O86      O      0.280090000000     0.986020000000     0.944810000000    -0.454285   
O87      O      0.285130000000     0.037220000000     0.484720000000    -0.455778   
O88      O      0.290100000000     0.445590000000     0.993910000000    -0.453126   
O89      O      0.235830000000     0.443520000000     0.499560000000    -0.452045   
O90      O      0.232870000000     0.035810000000     0.000050000000    -0.436777   
O91      O      0.226400000000     0.490400000000     0.953320000000    -0.446017   
O92      O      0.242040000000     0.988390000000     0.544510000000    -0.448087   
O93      O      0.523300000000     0.245870000000     0.563570000000    -0.4496     
O94      O      0.011630000000     0.230060000000     0.972760000000    -0.440784   
O95      O      0.063690000000     0.232380000000     0.514500000000    -0.44713    
O96      O      0.470990000000     0.243430000000     0.023450000000    -0.448127   
O97      O      0.475880000000     0.294380000000     0.506790000000    -0.429269   
O98      O      0.069480000000     0.285550000000     0.008060000000    -0.446498   
O99      O      0.523540000000     0.281720000000     0.963030000000    -0.450765   
O100     O      0.022080000000     0.298820000000     0.553680000000    -0.436338   
O101     O      0.276630000000     0.193790000000     0.969600000000    -0.450723   
O102     O      0.264280000000     0.284970000000     0.961940000000    -0.458366   
O103     O      0.315760000000     0.246800000000     0.971980000000    -0.450926   
O104     O      0.223760000000     0.233740000000     0.959250000000    -0.44954    
O105     O      0.215760000000     0.234200000000     0.512530000000    -0.43855    
O106     O      0.307620000000     0.249110000000     0.525130000000    -0.445955   
O107     O      0.253650000000     0.287660000000     0.514660000000    -0.436178   
O108     O      0.267900000000     0.196840000000     0.522600000000    -0.45201    
O109     O      0.426440000000     0.302020000000     0.966610000000    -0.273408   
O110     O      0.171090000000     0.183600000000     0.515230000000    -0.28077    
O111     O      0.208130000000     0.331190000000     0.522650000000    -0.273687   
O112     O      0.225670000000     0.085690000000     0.538170000000    -0.273075   
O113     O      0.216650000000     0.543660000000     0.840920000000    -0.270895   
O114     O      0.309860000000     0.040700000000     0.651900000000    -0.273084   
O115     O      0.456390000000     0.232050000000     0.858190000000    -0.272007   
O116     O      0.478590000000     0.315080000000     0.601310000000    -0.275218   
O117     O      0.171970000000     0.463970000000     0.790680000000    -0.269342   
O118     O      0.418230000000     0.076550000000     0.758450000000    -0.276415   
O119     O      0.065870000000     0.428290000000     0.782500000000    -0.279371   
O120     O      0.070790000000     0.113180000000     0.784100000000    -0.28044    
O121     O      0.012990000000     0.573450000000     0.259310000000    -0.440168   
O122     O      0.507400000000     0.982940000000     0.238710000000    -0.446021   
O123     O      0.463850000000     0.530870000000     0.253280000000    -0.440322   
O124     O      0.057010000000     0.027430000000     0.245120000000    -0.446854   
O125     O      0.061180000000     0.517090000000     0.297780000000    -0.443916   
O126     O      0.467780000000     0.013120000000     0.303970000000    -0.451779   
O127     O      0.016700000000     0.970690000000     0.290320000000    -0.439493   
O128     O      0.512940000000     0.560820000000     0.311710000000    -0.442018   
O129     O      0.035040000000     0.767750000000     0.219740000000    -0.45038    
O130     O      0.030480000000     0.770400000000     0.311910000000    -0.455034   
O131     O      0.033190000000     0.723020000000     0.266640000000    -0.449886   
O132     O      0.032440000000     0.815550000000     0.265530000000    -0.448882   
O133     O      0.477980000000     0.815550000000     0.263220000000    -0.44133    
O134     O      0.478830000000     0.722350000000     0.263320000000    -0.437926   
O135     O      0.476080000000     0.767840000000     0.309670000000    -0.429636   
O136     O      0.480610000000     0.769980000000     0.216990000000    -0.445047   
O137     O      0.310090000000     0.533680000000     0.249050000000    -0.447032   
O138     O      0.216750000000     0.529650000000     0.241590000000    -0.448326   
O139     O      0.259000000000     0.533690000000     0.292060000000    -0.432389   
O140     O      0.267910000000     0.529830000000     0.199880000000    -0.438343   
O141     O      0.264330000000     0.976180000000     0.202510000000    -0.452003   
O142     O      0.267170000000     0.980510000000     0.294650000000    -0.453673   
O143     O      0.218910000000     0.976600000000     0.250430000000    -0.437178   
O144     O      0.312380000000     0.979890000000     0.248360000000    -0.45152    
O145     O      0.295220000000     0.996430000000     0.035460000000    -0.445632   
O146     O      0.280090000000     0.486020000000     0.444810000000    -0.454117   
O147     O      0.285130000000     0.537220000000     0.984720000000    -0.455746   
O148     O      0.290100000000     0.945590000000     0.493910000000    -0.453151   
O149     O      0.235830000000     0.943520000000     0.999560000000    -0.452035   
O150     O      0.232870000000     0.535810000000     0.500050000000    -0.436926   
O151     O      0.226400000000     0.990400000000     0.453320000000    -0.445916   
O152     O      0.242040000000     0.488390000000     0.044510000000    -0.447989   
O153     O      0.523300000000     0.745870000000     0.063570000000    -0.449742   
O154     O      0.011630000000     0.730060000000     0.472760000000    -0.44082    
O155     O      0.063690000000     0.732380000000     0.014500000000    -0.447198   
O156     O      0.470990000000     0.743430000000     0.523440000000    -0.448244   
O157     O      0.475880000000     0.794370000000     0.006790000000    -0.429383   
O158     O      0.069480000000     0.785550000000     0.508060000000    -0.446428   
O159     O      0.523540000000     0.781720000000     0.463030000000    -0.450825   
O160     O      0.022080000000     0.798820000000     0.053680000000    -0.436491   
O161     O      0.276630000000     0.693790000000     0.469600000000    -0.450776   
O162     O      0.264280000000     0.784980000000     0.461940000000    -0.458288   
O163     O      0.315760000000     0.746800000000     0.471980000000    -0.450824   
O164     O      0.223760000000     0.733740000000     0.459250000000    -0.449557   
O165     O      0.215760000000     0.734200000000     0.012530000000    -0.438431   
O166     O      0.307620000000     0.749110000000     0.025130000000    -0.445962   
O167     O      0.253650000000     0.787660000000     0.014660000000    -0.436051   
O168     O      0.267900000000     0.696830000000     0.022600000000    -0.451846   
O169     O      0.426440000000     0.802020000000     0.466610000000    -0.273421   
O170     O      0.171090000000     0.683600000000     0.015230000000    -0.280726   
O171     O      0.208130000000     0.831190000000     0.022650000000    -0.273712   
O172     O      0.225670000000     0.585690000000     0.038170000000    -0.27309    
O173     O      0.216650000000     0.043660000000     0.340920000000    -0.270908   
O174     O      0.309860000000     0.540700000000     0.151900000000    -0.272997   
O175     O      0.456390000000     0.732050000000     0.358200000000    -0.272139   
O176     O      0.478590000000     0.815080000000     0.101310000000    -0.27513    
O177     O      0.171970000000     0.963970000000     0.290680000000    -0.269461   
O178     O      0.418230000000     0.576550000000     0.258450000000    -0.276416   
O179     O      0.065870000000     0.928290000000     0.282500000000    -0.279333   
O180     O      0.070790000000     0.613180000000     0.284100000000    -0.280458   
O181     O      0.012990000000     0.573450000000     0.759310000000    -0.440139   
O182     O      0.507400000000     0.982940000000     0.738710000000    -0.446003   
O183     O      0.463850000000     0.530870000000     0.753280000000    -0.440298   
O184     O      0.057010000000     0.027430000000     0.745120000000    -0.446833   
O185     O      0.061180000000     0.517090000000     0.797780000000    -0.443891   
O186     O      0.467780000000     0.013120000000     0.803970000000    -0.451738   
O187     O      0.016700000000     0.970690000000     0.790320000000    -0.439489   
O188     O      0.512940000000     0.560820000000     0.811710000000    -0.44196    
O189     O      0.035040000000     0.767750000000     0.719740000000    -0.450462   
O190     O      0.030480000000     0.770400000000     0.811910000000    -0.454958   
O191     O      0.033190000000     0.723020000000     0.766640000000    -0.449881   
O192     O      0.032440000000     0.815550000000     0.765530000000    -0.448881   
O193     O      0.477980000000     0.815550000000     0.763220000000    -0.441328   
O194     O      0.478830000000     0.722350000000     0.763310000000    -0.437914   
O195     O      0.476080000000     0.767840000000     0.809670000000    -0.429557   
O196     O      0.480610000000     0.769980000000     0.716990000000    -0.445111   
O197     O      0.310090000000     0.533680000000     0.749060000000    -0.447029   
O198     O      0.216750000000     0.529650000000     0.741600000000    -0.44836    
O199     O      0.259000000000     0.533690000000     0.792060000000    -0.432365   
O200     O      0.267910000000     0.529830000000     0.699880000000    -0.438338   
O201     O      0.264330000000     0.976180000000     0.702510000000    -0.45198    
O202     O      0.267170000000     0.980510000000     0.794650000000    -0.453666   
O203     O      0.218910000000     0.976600000000     0.750430000000    -0.437189   
O204     O      0.312380000000     0.979890000000     0.748360000000    -0.45152    
O205     O      0.295220000000     0.996430000000     0.535460000000    -0.445823   
O206     O      0.280090000000     0.486020000000     0.944810000000    -0.454289   
O207     O      0.285130000000     0.537220000000     0.484720000000    -0.455749   
O208     O      0.290100000000     0.945590000000     0.993910000000    -0.453135   
O209     O      0.235830000000     0.943520000000     0.499560000000    -0.452052   
O210     O      0.232870000000     0.535810000000     0.000050000000    -0.436747   
O211     O      0.226400000000     0.990400000000     0.953320000000    -0.446009   
O212     O      0.242040000000     0.488390000000     0.544510000000    -0.44809    
O213     O      0.523300000000     0.745870000000     0.563570000000    -0.449605   
O214     O      0.011630000000     0.730060000000     0.972760000000    -0.440787   
O215     O      0.063690000000     0.732380000000     0.514500000000    -0.447226   
O216     O      0.470990000000     0.743430000000     0.023450000000    -0.448189   
O217     O      0.475880000000     0.794370000000     0.506790000000    -0.429436   
O218     O      0.069480000000     0.785550000000     0.008060000000    -0.446402   
O219     O      0.523540000000     0.781720000000     0.963030000000    -0.450768   
O220     O      0.022080000000     0.798820000000     0.553680000000    -0.436355   
O221     O      0.276630000000     0.693790000000     0.969600000000    -0.450725   
O222     O      0.264280000000     0.784980000000     0.961940000000    -0.458256   
O223     O      0.315760000000     0.746800000000     0.971980000000    -0.450907   
O224     O      0.223760000000     0.733740000000     0.959250000000    -0.449521   
O225     O      0.215760000000     0.734200000000     0.512530000000    -0.438527   
O226     O      0.307620000000     0.749110000000     0.525130000000    -0.445939   
O227     O      0.253650000000     0.787660000000     0.514660000000    -0.436139   
O228     O      0.267900000000     0.696830000000     0.522600000000    -0.451955   
O229     O      0.426440000000     0.802020000000     0.966610000000    -0.273411   
O230     O      0.171090000000     0.683600000000     0.515230000000    -0.280801   
O231     O      0.208130000000     0.831190000000     0.522650000000    -0.273688   
O232     O      0.225670000000     0.585690000000     0.538170000000    -0.273069   
O233     O      0.216650000000     0.043660000000     0.840920000000    -0.270903   
O234     O      0.309860000000     0.540700000000     0.651900000000    -0.273085   
O235     O      0.456390000000     0.732050000000     0.858190000000    -0.272008   
O236     O      0.478590000000     0.815080000000     0.601310000000    -0.275212   
O237     O      0.171970000000     0.963970000000     0.790680000000    -0.269459   
O238     O      0.418230000000     0.576550000000     0.758450000000    -0.276414   
O239     O      0.065870000000     0.928290000000     0.782500000000    -0.279376   
O240     O      0.070790000000     0.613180000000     0.784100000000    -0.28044    
O241     O      0.512990000000     0.073450000000     0.259310000000    -0.440146   
O242     O      0.007400000000     0.482940000000     0.238710000000    -0.446065   
O243     O      0.963850000000     0.030870000000     0.253280000000    -0.440197   
O244     O      0.557010000000     0.527430000000     0.245120000000    -0.446874   
O245     O      0.561180000000     0.017090000000     0.297780000000    -0.443942   
O246     O      0.967780000000     0.513120000000     0.303970000000    -0.45164    
O247     O      0.516700000000     0.470690000000     0.290320000000    -0.439491   
O248     O      0.012940000000     0.060820000000     0.311710000000    -0.442036   
O249     O      0.535040000000     0.267750000000     0.219740000000    -0.450432   
O250     O      0.530480000000     0.270400000000     0.311910000000    -0.455087   
O251     O      0.533190000000     0.223020000000     0.266640000000    -0.449939   
O252     O      0.532440000000     0.315550000000     0.265530000000    -0.448936   
O253     O      0.977980000000     0.315550000000     0.263220000000    -0.441186   
O254     O      0.978830000000     0.222350000000     0.263320000000    -0.437786   
O255     O      0.976080000000     0.267840000000     0.309670000000    -0.429495   
O256     O      0.980610000000     0.269980000000     0.216990000000    -0.444907   
O257     O      0.810090000000     0.033680000000     0.249050000000    -0.447048   
O258     O      0.716750000000     0.029650000000     0.241590000000    -0.448316   
O259     O      0.759000000000     0.033690000000     0.292060000000    -0.432378   
O260     O      0.767910000000     0.029830000000     0.199880000000    -0.438334   
O261     O      0.764330000000     0.476180000000     0.202510000000    -0.452014   
O262     O      0.767170000000     0.480510000000     0.294650000000    -0.453682   
O263     O      0.718910000000     0.476600000000     0.250430000000    -0.437181   
O264     O      0.812390000000     0.479890000000     0.248360000000    -0.451479   
O265     O      0.795220000000     0.496430000000     0.035460000000    -0.445694   
O266     O      0.780100000000     0.986020000000     0.444810000000    -0.454079   
O267     O      0.785130000000     0.037220000000     0.984720000000    -0.455696   
O268     O      0.790100000000     0.445590000000     0.493910000000    -0.453175   
O269     O      0.735830000000     0.443520000000     0.999560000000    -0.45205    
O270     O      0.732870000000     0.035810000000     0.500050000000    -0.437068   
O271     O      0.726400000000     0.490400000000     0.453320000000    -0.445795   
O272     O      0.742040000000     0.988390000000     0.044510000000    -0.448005   
O273     O      0.023300000000     0.245870000000     0.063570000000    -0.449733   
O274     O      0.511640000000     0.230060000000     0.472760000000    -0.44084    
O275     O      0.563690000000     0.232380000000     0.014500000000    -0.447212   
O276     O      0.970990000000     0.243430000000     0.523440000000    -0.448011   
O277     O      0.975880000000     0.294380000000     0.006790000000    -0.429058   
O278     O      0.569480000000     0.285550000000     0.508060000000    -0.446617   
O279     O      0.023540000000     0.281720000000     0.463030000000    -0.450813   
O280     O      0.522080000000     0.298820000000     0.053680000000    -0.436459   
O281     O      0.776630000000     0.193790000000     0.469600000000    -0.450794   
O282     O      0.764280000000     0.284970000000     0.461940000000    -0.458419   
O283     O      0.815750000000     0.246800000000     0.471980000000    -0.450924   
O284     O      0.723760000000     0.233740000000     0.459250000000    -0.449613   
O285     O      0.715760000000     0.234200000000     0.012530000000    -0.43846    
O286     O      0.807620000000     0.249110000000     0.025130000000    -0.445952   
O287     O      0.753650000000     0.287660000000     0.014660000000    -0.436088   
O288     O      0.767900000000     0.196840000000     0.022600000000    -0.451925   
O289     O      0.926440000000     0.302020000000     0.466610000000    -0.273402   
O290     O      0.671090000000     0.183600000000     0.015230000000    -0.280695   
O291     O      0.708130000000     0.331190000000     0.022650000000    -0.273713   
O292     O      0.725670000000     0.085690000000     0.038170000000    -0.273101   
O293     O      0.716650000000     0.543660000000     0.340920000000    -0.270893   
O294     O      0.809860000000     0.040700000000     0.151900000000    -0.273001   
O295     O      0.956390000000     0.232050000000     0.358200000000    -0.272107   
O296     O      0.978590000000     0.315080000000     0.101310000000    -0.274961   
O297     O      0.671970000000     0.463970000000     0.290680000000    -0.269345   
O298     O      0.918230000000     0.076550000000     0.258450000000    -0.276396   
O299     O      0.565870000000     0.428290000000     0.282500000000    -0.27932    
O300     O      0.570790000000     0.113180000000     0.284100000000    -0.280459   
O301     O      0.512990000000     0.073450000000     0.759310000000    -0.440117   
O302     O      0.007400000000     0.482940000000     0.738710000000    -0.446048   
O303     O      0.963850000000     0.030870000000     0.753280000000    -0.440172   
O304     O      0.557010000000     0.527430000000     0.745120000000    -0.446853   
O305     O      0.561180000000     0.017090000000     0.797780000000    -0.443917   
O306     O      0.967780000000     0.513120000000     0.803970000000    -0.4516     
O307     O      0.516700000000     0.470690000000     0.790320000000    -0.439488   
O308     O      0.012940000000     0.060820000000     0.811710000000    -0.441978   
O309     O      0.535040000000     0.267750000000     0.719740000000    -0.450514   
O310     O      0.530480000000     0.270400000000     0.811910000000    -0.455012   
O311     O      0.533190000000     0.223020000000     0.766640000000    -0.449934   
O312     O      0.532440000000     0.315550000000     0.765530000000    -0.448935   
O313     O      0.977980000000     0.315550000000     0.763220000000    -0.441184   
O314     O      0.978830000000     0.222350000000     0.763310000000    -0.437774   
O315     O      0.976080000000     0.267840000000     0.809670000000    -0.429417   
O316     O      0.980610000000     0.269980000000     0.716990000000    -0.444972   
O317     O      0.810090000000     0.033680000000     0.749060000000    -0.447045   
O318     O      0.716750000000     0.029650000000     0.741600000000    -0.448351   
O319     O      0.759000000000     0.033690000000     0.792060000000    -0.432355   
O320     O      0.767910000000     0.029830000000     0.699880000000    -0.438329   
O321     O      0.764330000000     0.476180000000     0.702510000000    -0.451991   
O322     O      0.767170000000     0.480510000000     0.794650000000    -0.453675   
O323     O      0.718910000000     0.476600000000     0.750430000000    -0.437192   
O324     O      0.812390000000     0.479890000000     0.748360000000    -0.45148    
O325     O      0.795220000000     0.496430000000     0.535460000000    -0.445885   
O326     O      0.780100000000     0.986020000000     0.944810000000    -0.454251   
O327     O      0.785130000000     0.037220000000     0.484720000000    -0.455699   
O328     O      0.790100000000     0.445590000000     0.993910000000    -0.453159   
O329     O      0.735830000000     0.443520000000     0.499560000000    -0.452067   
O330     O      0.732870000000     0.035810000000     0.000050000000    -0.436889   
O331     O      0.726400000000     0.490400000000     0.953320000000    -0.445888   
O332     O      0.742040000000     0.988390000000     0.544510000000    -0.448105   
O333     O      0.023300000000     0.245870000000     0.563570000000    -0.449596   
O334     O      0.511640000000     0.230060000000     0.972760000000    -0.440807   
O335     O      0.563690000000     0.232380000000     0.514500000000    -0.447239   
O336     O      0.970990000000     0.243430000000     0.023450000000    -0.447956   
O337     O      0.975880000000     0.294380000000     0.506790000000    -0.429111   
O338     O      0.569480000000     0.285550000000     0.008060000000    -0.446591   
O339     O      0.023540000000     0.281720000000     0.963030000000    -0.450756   
O340     O      0.522080000000     0.298820000000     0.553680000000    -0.436322   
O341     O      0.776630000000     0.193790000000     0.969600000000    -0.450743   
O342     O      0.764280000000     0.284970000000     0.961940000000    -0.458386   
O343     O      0.815750000000     0.246800000000     0.971980000000    -0.451007   
O344     O      0.723760000000     0.233740000000     0.959250000000    -0.449578   
O345     O      0.715760000000     0.234200000000     0.512530000000    -0.438556   
O346     O      0.807620000000     0.249110000000     0.525130000000    -0.44593    
O347     O      0.753650000000     0.287660000000     0.514660000000    -0.436176   
O348     O      0.767900000000     0.196840000000     0.522600000000    -0.452034   
O349     O      0.926440000000     0.302020000000     0.966610000000    -0.273392   
O350     O      0.671090000000     0.183600000000     0.515230000000    -0.28077    
O351     O      0.708130000000     0.331190000000     0.522650000000    -0.273689   
O352     O      0.725670000000     0.085690000000     0.538170000000    -0.27308    
O353     O      0.716650000000     0.543660000000     0.840920000000    -0.270888   
O354     O      0.809860000000     0.040700000000     0.651900000000    -0.273088   
O355     O      0.956390000000     0.232050000000     0.858190000000    -0.271976   
O356     O      0.978590000000     0.315080000000     0.601310000000    -0.275043   
O357     O      0.671970000000     0.463970000000     0.790680000000    -0.269343   
O358     O      0.918230000000     0.076550000000     0.758450000000    -0.276395   
O359     O      0.565870000000     0.428290000000     0.782500000000    -0.279363   
O360     O      0.570790000000     0.113180000000     0.784100000000    -0.280441   
O361     O      0.512990000000     0.573450000000     0.259310000000    -0.440152   
O362     O      0.007400000000     0.982940000000     0.238710000000    -0.446034   
O363     O      0.963850000000     0.530870000000     0.253280000000    -0.440195   
O364     O      0.557010000000     0.027430000000     0.245120000000    -0.446876   
O365     O      0.561180000000     0.517090000000     0.297780000000    -0.443938   
O366     O      0.967780000000     0.013120000000     0.303970000000    -0.451647   
O367     O      0.516700000000     0.970690000000     0.290320000000    -0.439463   
O368     O      0.012940000000     0.560820000000     0.311710000000    -0.442041   
O369     O      0.535040000000     0.767750000000     0.219740000000    -0.450432   
O370     O      0.530480000000     0.770400000000     0.311910000000    -0.455087   
O371     O      0.533190000000     0.723020000000     0.266640000000    -0.449939   
O372     O      0.532440000000     0.815550000000     0.265530000000    -0.448935   
O373     O      0.977980000000     0.815550000000     0.263220000000    -0.441185   
O374     O      0.978830000000     0.722350000000     0.263320000000    -0.437786   
O375     O      0.976080000000     0.767840000000     0.309670000000    -0.429495   
O376     O      0.980610000000     0.769980000000     0.216990000000    -0.444908   
O377     O      0.810090000000     0.533680000000     0.249050000000    -0.44706    
O378     O      0.716750000000     0.529650000000     0.241590000000    -0.448327   
O379     O      0.759000000000     0.533690000000     0.292060000000    -0.43239    
O380     O      0.767910000000     0.529830000000     0.199880000000    -0.438346   
O381     O      0.764330000000     0.976180000000     0.202510000000    -0.45198    
O382     O      0.767170000000     0.980510000000     0.294650000000    -0.45365    
O383     O      0.718910000000     0.976600000000     0.250430000000    -0.437145   
O384     O      0.812390000000     0.979890000000     0.248360000000    -0.451446   
O385     O      0.795220000000     0.996430000000     0.035460000000    -0.445686   
O386     O      0.780100000000     0.486020000000     0.444810000000    -0.454083   
O387     O      0.785130000000     0.537220000000     0.984720000000    -0.455667   
O388     O      0.790100000000     0.945590000000     0.493910000000    -0.453184   
O389     O      0.735830000000     0.943520000000     0.999560000000    -0.452057   
O390     O      0.732870000000     0.535810000000     0.500050000000    -0.437038   
O391     O      0.726400000000     0.990400000000     0.453320000000    -0.445787   
O392     O      0.742040000000     0.488390000000     0.044510000000    -0.448007   
O393     O      0.023300000000     0.745870000000     0.063570000000    -0.449738   
O394     O      0.511640000000     0.730060000000     0.472760000000    -0.440843   
O395     O      0.563690000000     0.732380000000     0.014500000000    -0.447308   
O396     O      0.970990000000     0.743430000000     0.523440000000    -0.448073   
O397     O      0.975880000000     0.794370000000     0.006790000000    -0.429224   
O398     O      0.569480000000     0.785550000000     0.508060000000    -0.446521   
O399     O      0.023540000000     0.781720000000     0.463030000000    -0.450816   
O400     O      0.522080000000     0.798820000000     0.053680000000    -0.436476   
O401     O      0.776630000000     0.693790000000     0.469600000000    -0.450796   
O402     O      0.764280000000     0.784980000000     0.461940000000    -0.458308   
O403     O      0.815750000000     0.746800000000     0.471980000000    -0.450906   
O404     O      0.723760000000     0.733740000000     0.459250000000    -0.449595   
O405     O      0.715760000000     0.734200000000     0.012530000000    -0.438437   
O406     O      0.807620000000     0.749110000000     0.025130000000    -0.445936   
O407     O      0.753650000000     0.787660000000     0.014660000000    -0.436049   
O408     O      0.767900000000     0.696830000000     0.022600000000    -0.45187    
O409     O      0.926440000000     0.802020000000     0.466610000000    -0.273405   
O410     O      0.671090000000     0.683600000000     0.015230000000    -0.280727   
O411     O      0.708130000000     0.831190000000     0.022650000000    -0.273713   
O412     O      0.725670000000     0.585690000000     0.038170000000    -0.273096   
O413     O      0.716650000000     0.043660000000     0.340920000000    -0.270901   
O414     O      0.809860000000     0.540700000000     0.151900000000    -0.273002   
O415     O      0.956390000000     0.732050000000     0.358200000000    -0.272107   
O416     O      0.978590000000     0.815080000000     0.101310000000    -0.274955   
O417     O      0.671970000000     0.963970000000     0.290680000000    -0.269462   
O418     O      0.918230000000     0.576550000000     0.258450000000    -0.276396   
O419     O      0.565870000000     0.928290000000     0.282500000000    -0.279325   
O420     O      0.570790000000     0.613180000000     0.284100000000    -0.280459   
O421     O      0.512990000000     0.573450000000     0.759310000000    -0.440123   
O422     O      0.007400000000     0.982940000000     0.738710000000    -0.446017   
O423     O      0.963850000000     0.530870000000     0.753280000000    -0.44017    
O424     O      0.557010000000     0.027430000000     0.745120000000    -0.446854   
O425     O      0.561180000000     0.517090000000     0.797780000000    -0.443913   
O426     O      0.967780000000     0.013120000000     0.803970000000    -0.451607   
O427     O      0.516700000000     0.970690000000     0.790320000000    -0.439459   
O428     O      0.012940000000     0.560820000000     0.811710000000    -0.441984   
O429     O      0.535040000000     0.767750000000     0.719740000000    -0.450514   
O430     O      0.530480000000     0.770400000000     0.811910000000    -0.455012   
O431     O      0.533190000000     0.723020000000     0.766640000000    -0.449934   
O432     O      0.532440000000     0.815550000000     0.765530000000    -0.448935   
O433     O      0.977980000000     0.815550000000     0.763220000000    -0.441183   
O434     O      0.978830000000     0.722350000000     0.763310000000    -0.437774   
O435     O      0.976080000000     0.767840000000     0.809670000000    -0.429417   
O436     O      0.980610000000     0.769980000000     0.716990000000    -0.444972   
O437     O      0.810090000000     0.533680000000     0.749060000000    -0.447057   
O438     O      0.716750000000     0.529650000000     0.741600000000    -0.448362   
O439     O      0.759000000000     0.533690000000     0.792060000000    -0.432367   
O440     O      0.767910000000     0.529830000000     0.699880000000    -0.438341   
O441     O      0.764330000000     0.976180000000     0.702510000000    -0.451957   
O442     O      0.767170000000     0.980510000000     0.794650000000    -0.453642   
O443     O      0.718910000000     0.976600000000     0.750430000000    -0.437156   
O444     O      0.812390000000     0.979890000000     0.748360000000    -0.451446   
O445     O      0.795220000000     0.996430000000     0.535460000000    -0.445877   
O446     O      0.780100000000     0.486020000000     0.944810000000    -0.454255   
O447     O      0.785130000000     0.537220000000     0.484720000000    -0.45567    
O448     O      0.790100000000     0.945590000000     0.993910000000    -0.453168   
O449     O      0.735830000000     0.943520000000     0.499560000000    -0.452074   
O450     O      0.732870000000     0.535810000000     0.000050000000    -0.43686    
O451     O      0.726400000000     0.990400000000     0.953320000000    -0.44588    
O452     O      0.742040000000     0.488390000000     0.544510000000    -0.448108   
O453     O      0.023300000000     0.745870000000     0.563570000000    -0.449601   
O454     O      0.511640000000     0.730060000000     0.972760000000    -0.440811   
O455     O      0.563690000000     0.732380000000     0.514500000000    -0.447335   
O456     O      0.970990000000     0.743430000000     0.023450000000    -0.448018   
O457     O      0.975880000000     0.794370000000     0.506790000000    -0.429278   
O458     O      0.569480000000     0.785550000000     0.008060000000    -0.446496   
O459     O      0.023540000000     0.781720000000     0.963030000000    -0.450759   
O460     O      0.522080000000     0.798820000000     0.553680000000    -0.436339   
O461     O      0.776630000000     0.693790000000     0.969600000000    -0.450745   
O462     O      0.764280000000     0.784980000000     0.961940000000    -0.458276   
O463     O      0.815750000000     0.746800000000     0.971980000000    -0.450988   
O464     O      0.723760000000     0.733740000000     0.959250000000    -0.449559   
O465     O      0.715760000000     0.734200000000     0.512530000000    -0.438533   
O466     O      0.807620000000     0.749110000000     0.525130000000    -0.445914   
O467     O      0.753650000000     0.787660000000     0.514660000000    -0.436137   
O468     O      0.767900000000     0.696830000000     0.522600000000    -0.45198    
O469     O      0.926440000000     0.802020000000     0.966610000000    -0.273395   
O470     O      0.671090000000     0.683600000000     0.515230000000    -0.280802   
O471     O      0.708130000000     0.831190000000     0.522650000000    -0.273689   
O472     O      0.725670000000     0.585690000000     0.538170000000    -0.273074   
O473     O      0.716650000000     0.043660000000     0.840920000000    -0.270896   
O474     O      0.809860000000     0.540700000000     0.651900000000    -0.273089   
O475     O      0.956390000000     0.732050000000     0.858190000000    -0.271976   
O476     O      0.978590000000     0.815080000000     0.601310000000    -0.275037   
O477     O      0.671970000000     0.963970000000     0.790680000000    -0.26946    
O478     O      0.918230000000     0.576550000000     0.758450000000    -0.276394   
O479     O      0.565870000000     0.928290000000     0.782500000000    -0.279368   
O480     O      0.570790000000     0.613180000000     0.784100000000    -0.280441   


