data_structure

_audit_creation_method RASPA-1.0
_audit_creation_date 2023-5-19
_audit_author_name 'Poobodin Mano'

_cell_length_a    42.1668
_cell_length_b    41.2009
_cell_length_c    41.6076
_cell_angle_alpha 90
_cell_angle_beta  90
_cell_angle_gamma 90
_cell_volume      72285.3

_symmetry_cell_setting          triclinic
_symmetry_space_group_name_Hall 'P 1'
_symmetry_space_group_name_H-M  'P 1'
_symmetry_Int_Tables_number     1

_symmetry_equiv_pos_as_xyz 'x,y,z'

loop_
_atom_site_label
_atom_site_type_symbol
_atom_site_fract_x
_atom_site_fract_y
_atom_site_fract_z
_atom_site_charge
C1       C      0.495440000000     0.063560000000     0.252030000000     0.457071   
C2       C      0.996620000000     0.440860000000     0.263210000000     0.474944   
C3       C      0.436210000000     0.999880000000     0.254980000000     0.469747   
C4       C      0.056650000000     0.002430000000     0.260160000000     0.455299   
C5       C      0.517910000000     0.315770000000     0.249620000000     0.434008   
C6       C      0.514150000000     0.192980000000     0.259300000000     0.431604   
C7       C      0.016030000000     0.250800000000     0.193410000000     0.454901   
C8       C      0.015890000000     0.259560000000     0.315580000000     0.453305   
C9       C      0.184900000000     0.509400000000     0.250270000000     0.430104   
C10      C      0.305510000000     0.503220000000     0.255960000000     0.432319   
C11      C      0.247490000000     0.003320000000     0.192370000000     0.464605   
C12      C      0.242930000000     0.008190000000     0.314350000000     0.459608   
C13      C      0.220550000000     0.077910000000     0.006250000000     0.463556   
C14      C      0.236790000000     0.455460000000     0.500710000000     0.455129   
C15      C      0.230980000000     0.014990000000     0.064060000000     0.438823   
C16      C      0.226010000000     0.020170000000     0.442170000000     0.433717   
C17      C      0.996960000000     0.271460000000     0.068620000000     0.425924   
C18      C      0.502090000000     0.260980000000     0.446510000000     0.42869    
C19      C      0.060120000000     0.268880000000     0.010350000000     0.427002   
C20      C      0.439540000000     0.264700000000     0.004980000000     0.463635   
C21      C      0.189520000000     0.263890000000     0.000540000000     0.455428   
C22      C      0.310090000000     0.258610000000     0.996450000000     0.428562   
C23      C      0.246740000000     0.200650000000     0.492920000000     0.43224    
C24      C      0.253240000000     0.323720000000     0.504630000000     0.425562   
C25      C      0.358580000000     0.231910000000     0.015860000000    -0.0163227  
C26      C      0.360540000000     0.271200000000     0.469590000000    -0.101069   
C27      C      0.390040000000     0.245330000000     0.028500000000    -0.00327886 
C28      C      0.389620000000     0.287580000000     0.484340000000     0.326571   
C29      C      0.110000000000     0.296870000000     0.496640000000    -0.0175695  
C30      C      0.110040000000     0.248850000000     0.034100000000    -0.103268   
C31      C      0.138630000000     0.282800000000     0.478910000000    -0.0025651  
C32      C      0.140380000000     0.236370000000     0.018200000000     0.324252   
C33      C      0.239310000000     0.373580000000     0.034230000000    -0.0177289  
C34      C      0.276540000000     0.375850000000     0.487180000000    -0.102008   
C35      C      0.220350000000     0.401900000000     0.020200000000    -0.00178486 
C36      C      0.260280000000     0.406910000000     0.475160000000     0.323866   
C37      C      0.224740000000     0.151210000000     0.967030000000    -0.0156177  
C38      C      0.261250000000     0.147290000000     0.014700000000    -0.102425   
C39      C      0.200360000000     0.129560000000     0.484880000000    -0.00749006 
C40      C      0.236100000000     0.128520000000     0.533040000000     0.328985   
C41      C      0.202840000000     0.003390000000     0.390400000000    -0.0138621  
C42      C      0.244260000000     0.047220000000     0.392660000000    -0.099937   
C43      C      0.222250000000     0.485560000000     0.364810000000    -0.00576093 
C44      C      0.262850000000     0.530550000000     0.365920000000     0.324598   
C45      C      0.252840000000     0.038780000000     0.113380000000    -0.0184226  
C46      C      0.210240000000     0.495750000000     0.115840000000    -0.100084   
C47      C      0.269930000000     0.022700000000     0.141490000000    -0.000173366
C48      C      0.229010000000     0.477970000000     0.141940000000     0.325571   
C49      C      0.518780000000     0.231000000000     0.397840000000    -0.0182099  
C50      C      0.481540000000     0.278680000000     0.393950000000    -0.106944   
C51      C      0.037130000000     0.243790000000     0.368550000000    -0.00282332 
C52      C      0.998840000000     0.290290000000     0.363800000000     0.327762   
C53      C      0.017010000000     0.294200000000     0.119600000000    -0.0179964  
C54      C      0.473920000000     0.252000000000     0.119430000000    -0.102136   
C55      C      0.036850000000     0.272540000000     0.142240000000    -0.00537903 
C56      C      0.493490000000     0.230650000000     0.141860000000     0.32658    
C57      C      0.134700000000     0.037940000000     0.262410000000    -0.0181938  
C58      C      0.135120000000     0.987570000000     0.228080000000    -0.106912   
C59      C      0.106790000000     0.524070000000     0.281800000000    -0.00298908 
C60      C      0.106820000000     0.474330000000     0.246710000000     0.327834   
C61      C      0.356400000000     0.028270000000     0.242280000000    -0.0166137  
C62      C      0.353700000000     0.480840000000     0.280820000000    -0.101933   
C63      C      0.386690000000     0.014340000000     0.227980000000     0.000751916
C64      C      0.387170000000     0.470670000000     0.270060000000     0.326571   
C65      C      0.039420000000     0.368620000000     0.266820000000    -0.0175458  
C66      C      0.995950000000     0.365420000000     0.225450000000    -0.102848   
C67      C      0.518640000000     0.391290000000     0.287320000000    -0.00218807 
C68      C      0.475390000000     0.387650000000     0.245840000000     0.331874   
C69      C      0.035540000000     0.139100000000     0.244940000000    -0.0134977  
C70      C      0.490260000000     0.144400000000     0.284140000000    -0.101545   
C71      C      0.017030000000     0.112840000000     0.226710000000    -0.0065428  
C72      C      0.472640000000     0.117180000000     0.266810000000     0.325449   
C73      C      0.495440000000     0.063560000000     0.752030000000     0.45707    
C74      C      0.996620000000     0.440860000000     0.763210000000     0.474943   
C75      C      0.436210000000     0.999880000000     0.754980000000     0.469747   
C76      C      0.056650000000     0.002430000000     0.760160000000     0.455299   
C77      C      0.517910000000     0.315770000000     0.749620000000     0.434006   
C78      C      0.514150000000     0.192980000000     0.759300000000     0.431604   
C79      C      0.016030000000     0.250800000000     0.693410000000     0.454901   
C80      C      0.015890000000     0.259560000000     0.815580000000     0.453305   
C81      C      0.184900000000     0.509400000000     0.750270000000     0.430104   
C82      C      0.305510000000     0.503220000000     0.755960000000     0.432317   
C83      C      0.247490000000     0.003320000000     0.692370000000     0.464604   
C84      C      0.242930000000     0.008190000000     0.814350000000     0.459608   
C85      C      0.220550000000     0.077910000000     0.506250000000     0.46358    
C86      C      0.236790000000     0.455460000000     0.000710000000     0.454974   
C87      C      0.230980000000     0.014990000000     0.564070000000     0.438755   
C88      C      0.226010000000     0.020170000000     0.942170000000     0.433695   
C89      C      0.996960000000     0.271460000000     0.568620000000     0.425932   
C90      C      0.502090000000     0.260980000000     0.946510000000     0.428674   
C91      C      0.060120000000     0.268880000000     0.510350000000     0.427015   
C92      C      0.439540000000     0.264700000000     0.504980000000     0.463648   
C93      C      0.189520000000     0.263890000000     0.500540000000     0.455561   
C94      C      0.310090000000     0.258610000000     0.496450000000     0.428424   
C95      C      0.246740000000     0.200650000000     0.992920000000     0.432373   
C96      C      0.253240000000     0.323720000000     0.004630000000     0.425428   
C97      C      0.358580000000     0.231910000000     0.515860000000    -0.016241   
C98      C      0.360540000000     0.271200000000     0.969590000000    -0.101108   
C99      C      0.390040000000     0.245330000000     0.528500000000    -0.00329561 
C100     C      0.389620000000     0.287580000000     0.984340000000     0.326773   
C101     C      0.110000000000     0.296870000000     0.996640000000    -0.0173627  
C102     C      0.110040000000     0.248850000000     0.534100000000    -0.103267   
C103     C      0.138630000000     0.282800000000     0.978910000000    -0.00253898 
C104     C      0.140380000000     0.236370000000     0.518200000000     0.324263   
C105     C      0.239310000000     0.373580000000     0.534230000000    -0.0177764  
C106     C      0.276540000000     0.375850000000     0.987180000000    -0.101853   
C107     C      0.220350000000     0.401900000000     0.520200000000    -0.00175455 
C108     C      0.260280000000     0.406910000000     0.975160000000     0.323905   
C109     C      0.224740000000     0.151210000000     0.467030000000    -0.0156127  
C110     C      0.261250000000     0.147290000000     0.514700000000    -0.102288   
C111     C      0.200360000000     0.129560000000     0.984880000000    -0.00740455 
C112     C      0.236100000000     0.128520000000     0.033040000000     0.329018   
C113     C      0.202840000000     0.003390000000     0.890400000000    -0.0138642  
C114     C      0.244260000000     0.047220000000     0.892660000000    -0.099939   
C115     C      0.222250000000     0.485560000000     0.864810000000    -0.00576031 
C116     C      0.262850000000     0.530550000000     0.865920000000     0.324598   
C117     C      0.252840000000     0.038780000000     0.613380000000    -0.0184073  
C118     C      0.210240000000     0.495750000000     0.615840000000    -0.10007    
C119     C      0.269930000000     0.022700000000     0.641490000000    -0.000177485
C120     C      0.229010000000     0.477970000000     0.641940000000     0.325568   
C121     C      0.518780000000     0.231000000000     0.897840000000    -0.0182119  
C122     C      0.481540000000     0.278680000000     0.893950000000    -0.106945   
C123     C      0.037130000000     0.243790000000     0.868550000000    -0.00282244 
C124     C      0.998840000000     0.290290000000     0.863800000000     0.327763   
C125     C      0.017010000000     0.294200000000     0.619600000000    -0.017995   
C126     C      0.473920000000     0.252000000000     0.619430000000    -0.102079   
C127     C      0.036850000000     0.272540000000     0.642240000000    -0.00538096 
C128     C      0.493490000000     0.230650000000     0.641860000000     0.326565   
C129     C      0.134700000000     0.037940000000     0.762410000000    -0.0181938  
C130     C      0.135120000000     0.987570000000     0.728080000000    -0.106912   
C131     C      0.106790000000     0.524070000000     0.781800000000    -0.00298996 
C132     C      0.106820000000     0.474330000000     0.746710000000     0.327834   
C133     C      0.356400000000     0.028270000000     0.742280000000    -0.0166547  
C134     C      0.353700000000     0.480840000000     0.780820000000    -0.101935   
C135     C      0.386690000000     0.014340000000     0.727980000000     0.000767356
C136     C      0.387170000000     0.470670000000     0.770060000000     0.326572   
C137     C      0.039420000000     0.368620000000     0.766820000000    -0.0175495  
C138     C      0.995950000000     0.365420000000     0.725450000000    -0.10292    
C139     C      0.518640000000     0.391290000000     0.787320000000    -0.00218772 
C140     C      0.475390000000     0.387650000000     0.745840000000     0.331892   
C141     C      0.035540000000     0.139100000000     0.744940000000    -0.013498   
C142     C      0.490260000000     0.144400000000     0.784140000000    -0.101546   
C143     C      0.017030000000     0.112840000000     0.726710000000    -0.00654319 
C144     C      0.472640000000     0.117180000000     0.766810000000     0.325449   
C145     C      0.495440000000     0.563560000000     0.252030000000     0.457181   
C146     C      0.996620000000     0.940860000000     0.263210000000     0.474938   
C147     C      0.436210000000     0.499880000000     0.254980000000     0.469624   
C148     C      0.056650000000     0.502430000000     0.260160000000     0.455427   
C149     C      0.517910000000     0.815770000000     0.249620000000     0.434006   
C150     C      0.514150000000     0.692980000000     0.259300000000     0.431605   
C151     C      0.016030000000     0.750800000000     0.193410000000     0.454901   
C152     C      0.015890000000     0.759560000000     0.315580000000     0.453371   
C153     C      0.184900000000     0.009400000000     0.250270000000     0.429981   
C154     C      0.305510000000     0.003220000000     0.255960000000     0.432195   
C155     C      0.247490000000     0.503320000000     0.192370000000     0.464733   
C156     C      0.242930000000     0.508190000000     0.314350000000     0.45973    
C157     C      0.220550000000     0.577910000000     0.006250000000     0.463563   
C158     C      0.236790000000     0.955460000000     0.500710000000     0.455232   
C159     C      0.230980000000     0.514990000000     0.064060000000     0.438838   
C160     C      0.226010000000     0.520170000000     0.442170000000     0.433744   
C161     C      0.996960000000     0.771450000000     0.068620000000     0.42594    
C162     C      0.502090000000     0.760980000000     0.446510000000     0.428689   
C163     C      0.060120000000     0.768880000000     0.010350000000     0.427      
C164     C      0.439540000000     0.764700000000     0.004980000000     0.463635   
C165     C      0.189520000000     0.763890000000     0.000540000000     0.455497   
C166     C      0.310090000000     0.758610000000     0.996450000000     0.428562   
C167     C      0.246740000000     0.700660000000     0.492920000000     0.43232    
C168     C      0.253240000000     0.823720000000     0.504630000000     0.425563   
C169     C      0.358580000000     0.731910000000     0.015860000000    -0.016323   
C170     C      0.360540000000     0.771200000000     0.469590000000    -0.101069   
C171     C      0.390040000000     0.745330000000     0.028500000000    -0.00327912 
C172     C      0.389620000000     0.787580000000     0.484340000000     0.32657    
C173     C      0.110000000000     0.796870000000     0.496640000000    -0.0175734  
C174     C      0.110040000000     0.748850000000     0.034100000000    -0.103303   
C175     C      0.138630000000     0.782800000000     0.478910000000    -0.00255854 
C176     C      0.140380000000     0.736370000000     0.018200000000     0.324365   
C177     C      0.239310000000     0.873580000000     0.034230000000    -0.0177257  
C178     C      0.276540000000     0.875850000000     0.487180000000    -0.102009   
C179     C      0.220350000000     0.901900000000     0.020200000000    -0.0017977  
C180     C      0.260280000000     0.906910000000     0.475160000000     0.323862   
C181     C      0.224740000000     0.651210000000     0.967030000000    -0.0156305  
C182     C      0.261250000000     0.647290000000     0.014700000000    -0.102395   
C183     C      0.200360000000     0.629560000000     0.484880000000    -0.00749043 
C184     C      0.236100000000     0.628520000000     0.533040000000     0.328844   
C185     C      0.202840000000     0.503390000000     0.390400000000    -0.013619   
C186     C      0.244260000000     0.547220000000     0.392660000000    -0.0999228  
C187     C      0.222250000000     0.985560000000     0.364810000000    -0.00555005 
C188     C      0.262850000000     0.030550000000     0.365920000000     0.324602   
C189     C      0.252840000000     0.538780000000     0.113380000000    -0.0184393  
C190     C      0.210240000000     0.995750000000     0.115840000000    -0.0998868  
C191     C      0.269930000000     0.522700000000     0.141490000000    -0.000117723
C192     C      0.229010000000     0.977970000000     0.141940000000     0.325597   
C193     C      0.518780000000     0.731000000000     0.397840000000    -0.0182363  
C194     C      0.481540000000     0.778680000000     0.393950000000    -0.106946   
C195     C      0.037130000000     0.743800000000     0.368550000000    -0.0027596  
C196     C      0.998840000000     0.790290000000     0.363800000000     0.327765   
C197     C      0.017010000000     0.794190000000     0.119600000000    -0.0178809  
C198     C      0.473920000000     0.752000000000     0.119430000000    -0.102198   
C199     C      0.036850000000     0.772540000000     0.142240000000    -0.00544723 
C200     C      0.493490000000     0.730650000000     0.141860000000     0.326592   
C201     C      0.134700000000     0.537940000000     0.262410000000    -0.0181757  
C202     C      0.135120000000     0.487570000000     0.228080000000    -0.107078   
C203     C      0.106790000000     0.024070000000     0.281800000000    -0.00303855 
C204     C      0.106820000000     0.974320000000     0.246710000000     0.32803    
C205     C      0.356400000000     0.528270000000     0.242280000000    -0.0167032  
C206     C      0.353700000000     0.980840000000     0.280820000000    -0.101855   
C207     C      0.386690000000     0.514340000000     0.227980000000     0.000970739
C208     C      0.387170000000     0.970670000000     0.270060000000     0.32656    
C209     C      0.039420000000     0.868620000000     0.266820000000    -0.0175472  
C210     C      0.995950000000     0.865420000000     0.225450000000    -0.102901   
C211     C      0.518640000000     0.891290000000     0.287320000000    -0.00218718 
C212     C      0.475390000000     0.887650000000     0.245840000000     0.331914   
C213     C      0.035540000000     0.639100000000     0.244940000000    -0.0134801  
C214     C      0.490260000000     0.644400000000     0.284140000000    -0.10154    
C215     C      0.017030000000     0.612840000000     0.226710000000    -0.00656427 
C216     C      0.472640000000     0.617180000000     0.266810000000     0.325428   
C217     C      0.495440000000     0.563560000000     0.752030000000     0.457181   
C218     C      0.996620000000     0.940860000000     0.763210000000     0.474937   
C219     C      0.436210000000     0.499880000000     0.754980000000     0.469624   
C220     C      0.056650000000     0.502430000000     0.760160000000     0.455426   
C221     C      0.517910000000     0.815770000000     0.749620000000     0.434004   
C222     C      0.514150000000     0.692980000000     0.759300000000     0.431605   
C223     C      0.016030000000     0.750800000000     0.693410000000     0.4549     
C224     C      0.015890000000     0.759560000000     0.815580000000     0.453371   
C225     C      0.184900000000     0.009400000000     0.750270000000     0.429981   
C226     C      0.305510000000     0.003220000000     0.755960000000     0.432193   
C227     C      0.247490000000     0.503320000000     0.692370000000     0.464733   
C228     C      0.242930000000     0.508190000000     0.814350000000     0.45973    
C229     C      0.220550000000     0.577910000000     0.506250000000     0.463586   
C230     C      0.236790000000     0.955460000000     0.000710000000     0.455076   
C231     C      0.230980000000     0.514990000000     0.564070000000     0.43877    
C232     C      0.226010000000     0.520170000000     0.942170000000     0.433721   
C233     C      0.996960000000     0.771450000000     0.568620000000     0.425947   
C234     C      0.502090000000     0.760980000000     0.946510000000     0.428673   
C235     C      0.060120000000     0.768880000000     0.510350000000     0.427013   
C236     C      0.439540000000     0.764700000000     0.504980000000     0.463648   
C237     C      0.189520000000     0.763890000000     0.500540000000     0.455629   
C238     C      0.310090000000     0.758610000000     0.496450000000     0.428424   
C239     C      0.246740000000     0.700660000000     0.992920000000     0.432453   
C240     C      0.253240000000     0.823720000000     0.004630000000     0.42543    
C241     C      0.358580000000     0.731910000000     0.515860000000    -0.0162414  
C242     C      0.360540000000     0.771200000000     0.969590000000    -0.101108   
C243     C      0.390040000000     0.745330000000     0.528500000000    -0.00329587 
C244     C      0.389620000000     0.787580000000     0.984340000000     0.326772   
C245     C      0.110000000000     0.796870000000     0.996640000000    -0.0173666  
C246     C      0.110040000000     0.748850000000     0.534100000000    -0.103301   
C247     C      0.138630000000     0.782800000000     0.978910000000    -0.00253242 
C248     C      0.140380000000     0.736370000000     0.518200000000     0.324376   
C249     C      0.239310000000     0.873580000000     0.534230000000    -0.0177732  
C250     C      0.276540000000     0.875850000000     0.987180000000    -0.101855   
C251     C      0.220350000000     0.901900000000     0.520200000000    -0.00176737 
C252     C      0.260280000000     0.906910000000     0.975160000000     0.323902   
C253     C      0.224740000000     0.651210000000     0.467030000000    -0.0156255  
C254     C      0.261250000000     0.647290000000     0.514700000000    -0.102257   
C255     C      0.200360000000     0.629560000000     0.984880000000    -0.00740492 
C256     C      0.236100000000     0.628520000000     0.033040000000     0.328877   
C257     C      0.202840000000     0.503390000000     0.890400000000    -0.0136211  
C258     C      0.244260000000     0.547220000000     0.892660000000    -0.0999249  
C259     C      0.222250000000     0.985560000000     0.864810000000    -0.00554944 
C260     C      0.262850000000     0.030550000000     0.865920000000     0.324602   
C261     C      0.252840000000     0.538780000000     0.613380000000    -0.0184241  
C262     C      0.210240000000     0.995750000000     0.615840000000    -0.0998728  
C263     C      0.269930000000     0.522700000000     0.641490000000    -0.00012184 
C264     C      0.229010000000     0.977970000000     0.641940000000     0.325594   
C265     C      0.518780000000     0.731000000000     0.897840000000    -0.0182383  
C266     C      0.481540000000     0.778680000000     0.893950000000    -0.106947   
C267     C      0.037130000000     0.743800000000     0.868550000000    -0.00275873 
C268     C      0.998840000000     0.790290000000     0.863800000000     0.327765   
C269     C      0.017010000000     0.794190000000     0.619600000000    -0.0178795  
C270     C      0.473920000000     0.752000000000     0.619430000000    -0.102141   
C271     C      0.036850000000     0.772540000000     0.642240000000    -0.00544915 
C272     C      0.493490000000     0.730650000000     0.641860000000     0.326577   
C273     C      0.134700000000     0.537940000000     0.762410000000    -0.0181757  
C274     C      0.135120000000     0.487570000000     0.728080000000    -0.107078   
C275     C      0.106790000000     0.024070000000     0.781800000000    -0.00303943 
C276     C      0.106820000000     0.974320000000     0.746710000000     0.328029   
C277     C      0.356400000000     0.528270000000     0.742280000000    -0.0167443  
C278     C      0.353700000000     0.980840000000     0.780820000000    -0.101857   
C279     C      0.386690000000     0.514340000000     0.727980000000     0.00098619 
C280     C      0.387170000000     0.970670000000     0.770060000000     0.326561   
C281     C      0.039420000000     0.868620000000     0.766820000000    -0.0175509  
C282     C      0.995950000000     0.865420000000     0.725450000000    -0.102974   
C283     C      0.518640000000     0.891290000000     0.787320000000    -0.00218683 
C284     C      0.475390000000     0.887650000000     0.745840000000     0.331932   
C285     C      0.035540000000     0.639100000000     0.744940000000    -0.0134805  
C286     C      0.490260000000     0.644400000000     0.784140000000    -0.101541   
C287     C      0.017030000000     0.612840000000     0.726710000000    -0.00656466 
C288     C      0.472640000000     0.617180000000     0.766810000000     0.325428   
C289     C      0.995440000000     0.063560000000     0.252030000000     0.45733    
C290     C      0.496620000000     0.440860000000     0.263210000000     0.474677   
C291     C      0.936210000000     0.999880000000     0.254980000000     0.46977    
C292     C      0.556650000000     0.002430000000     0.260160000000     0.455252   
C293     C      0.017910000000     0.315770000000     0.249620000000     0.433838   
C294     C      0.014150000000     0.192980000000     0.259300000000     0.431443   
C295     C      0.516030000000     0.250800000000     0.193410000000     0.455068   
C296     C      0.515890000000     0.259560000000     0.315580000000     0.453471   
C297     C      0.684900000000     0.509400000000     0.250270000000     0.430104   
C298     C      0.805510000000     0.503220000000     0.255960000000     0.432319   
C299     C      0.747490000000     0.003320000000     0.192370000000     0.464604   
C300     C      0.742930000000     0.008190000000     0.314350000000     0.459609   
C301     C      0.720550000000     0.077910000000     0.006250000000     0.463552   
C302     C      0.736790000000     0.455460000000     0.500710000000     0.454853   
C303     C      0.730980000000     0.014990000000     0.064060000000     0.438818   
C304     C      0.726010000000     0.020170000000     0.442170000000     0.433715   
C305     C      0.496960000000     0.271460000000     0.068620000000     0.425907   
C306     C      0.002090000000     0.260980000000     0.446510000000     0.428505   
C307     C      0.560120000000     0.268880000000     0.010350000000     0.426995   
C308     C      0.939540000000     0.264700000000     0.004980000000     0.463628   
C309     C      0.689520000000     0.263890000000     0.000540000000     0.455428   
C310     C      0.810090000000     0.258610000000     0.996450000000     0.428562   
C311     C      0.746740000000     0.200650000000     0.492920000000     0.432241   
C312     C      0.753240000000     0.323720000000     0.504630000000     0.425562   
C313     C      0.858580000000     0.231910000000     0.015860000000    -0.0163185  
C314     C      0.860540000000     0.271200000000     0.469590000000    -0.10107    
C315     C      0.890040000000     0.245330000000     0.028500000000    -0.00329663 
C316     C      0.889620000000     0.287580000000     0.484340000000     0.326573   
C317     C      0.610000000000     0.296870000000     0.496640000000    -0.0175719  
C318     C      0.610040000000     0.248850000000     0.034100000000    -0.103267   
C319     C      0.638630000000     0.282800000000     0.478910000000    -0.00256416 
C320     C      0.640380000000     0.236370000000     0.018200000000     0.324251   
C321     C      0.739310000000     0.373580000000     0.034230000000    -0.0177256  
C322     C      0.776540000000     0.375850000000     0.487180000000    -0.102007   
C323     C      0.720350000000     0.401900000000     0.020200000000    -0.0017981  
C324     C      0.760280000000     0.406910000000     0.475160000000     0.323859   
C325     C      0.724740000000     0.151210000000     0.967030000000    -0.0156183  
C326     C      0.761250000000     0.147290000000     0.014700000000    -0.102427   
C327     C      0.700360000000     0.129560000000     0.484880000000    -0.00749021 
C328     C      0.736100000000     0.128520000000     0.533040000000     0.328985   
C329     C      0.702840000000     0.003390000000     0.390400000000    -0.0138587  
C330     C      0.744260000000     0.047220000000     0.392660000000    -0.0999384  
C331     C      0.722260000000     0.485560000000     0.364810000000    -0.00571377 
C332     C      0.762850000000     0.530550000000     0.365920000000     0.324598   
C333     C      0.752840000000     0.038780000000     0.113380000000    -0.0183935  
C334     C      0.710240000000     0.495750000000     0.115840000000    -0.100084   
C335     C      0.769930000000     0.022700000000     0.141490000000    -0.000183711
C336     C      0.729010000000     0.477970000000     0.141940000000     0.32557    
C337     C      0.018780000000     0.231000000000     0.397840000000    -0.0182284  
C338     C      0.981540000000     0.278680000000     0.393950000000    -0.106897   
C339     C      0.537130000000     0.243790000000     0.368550000000    -0.00282101 
C340     C      0.498840000000     0.290290000000     0.363800000000     0.32744    
C341     C      0.517010000000     0.294200000000     0.119600000000    -0.0178725  
C342     C      0.973920000000     0.252000000000     0.119430000000    -0.102205   
C343     C      0.536850000000     0.272540000000     0.142240000000    -0.00540007 
C344     C      0.993490000000     0.230650000000     0.141860000000     0.326908   
C345     C      0.634700000000     0.037940000000     0.262410000000    -0.0181924  
C346     C      0.635120000000     0.987570000000     0.228080000000    -0.106908   
C347     C      0.606790000000     0.524070000000     0.281800000000    -0.00299275 
C348     C      0.606820000000     0.474330000000     0.246710000000     0.327819   
C349     C      0.856400000000     0.028270000000     0.242280000000    -0.0166138  
C350     C      0.853700000000     0.480840000000     0.280820000000    -0.101934   
C351     C      0.886690000000     0.014340000000     0.227980000000     0.000751685
C352     C      0.887170000000     0.470670000000     0.270060000000     0.326572   
C353     C      0.539420000000     0.368620000000     0.266820000000    -0.0175617  
C354     C      0.495950000000     0.365420000000     0.225450000000    -0.103164   
C355     C      0.018640000000     0.391290000000     0.287320000000    -0.00229726 
C356     C      0.975390000000     0.387650000000     0.245840000000     0.331969   
C357     C      0.535540000000     0.139100000000     0.244940000000    -0.013518   
C358     C      0.990260000000     0.144400000000     0.284140000000    -0.101201   
C359     C      0.517030000000     0.112840000000     0.226710000000    -0.00643073 
C360     C      0.972640000000     0.117180000000     0.266810000000     0.325398   
C361     C      0.995440000000     0.063560000000     0.752030000000     0.457329   
C362     C      0.496620000000     0.440860000000     0.763210000000     0.474676   
C363     C      0.936210000000     0.999880000000     0.754980000000     0.46977    
C364     C      0.556650000000     0.002430000000     0.760160000000     0.455251   
C365     C      0.017910000000     0.315770000000     0.749620000000     0.433836   
C366     C      0.014150000000     0.192980000000     0.759300000000     0.431443   
C367     C      0.516030000000     0.250800000000     0.693410000000     0.455067   
C368     C      0.515890000000     0.259560000000     0.815580000000     0.453471   
C369     C      0.684900000000     0.509400000000     0.750270000000     0.430103   
C370     C      0.805510000000     0.503220000000     0.755960000000     0.432317   
C371     C      0.747490000000     0.003320000000     0.692370000000     0.464604   
C372     C      0.742930000000     0.008190000000     0.814350000000     0.459609   
C373     C      0.720550000000     0.077910000000     0.506250000000     0.463576   
C374     C      0.736790000000     0.455460000000     0.000710000000     0.454697   
C375     C      0.730980000000     0.014990000000     0.564070000000     0.438751   
C376     C      0.726010000000     0.020170000000     0.942170000000     0.433692   
C377     C      0.496960000000     0.271460000000     0.568620000000     0.425915   
C378     C      0.002090000000     0.260980000000     0.946510000000     0.428489   
C379     C      0.560120000000     0.268880000000     0.510350000000     0.427008   
C380     C      0.939540000000     0.264700000000     0.504980000000     0.463641   
C381     C      0.689520000000     0.263890000000     0.500540000000     0.455561   
C382     C      0.810090000000     0.258610000000     0.496450000000     0.428424   
C383     C      0.746740000000     0.200650000000     0.992920000000     0.432373   
C384     C      0.753240000000     0.323720000000     0.004630000000     0.425428   
C385     C      0.858580000000     0.231910000000     0.515860000000    -0.016237   
C386     C      0.860540000000     0.271200000000     0.969590000000    -0.101109   
C387     C      0.890040000000     0.245330000000     0.528500000000    -0.00331335 
C388     C      0.889620000000     0.287580000000     0.984340000000     0.326774   
C389     C      0.610000000000     0.296870000000     0.996640000000    -0.0173647  
C390     C      0.610040000000     0.248850000000     0.534100000000    -0.103266   
C391     C      0.638630000000     0.282800000000     0.978910000000    -0.00253804 
C392     C      0.640380000000     0.236370000000     0.518200000000     0.324262   
C393     C      0.739310000000     0.373580000000     0.534230000000    -0.017773   
C394     C      0.776540000000     0.375850000000     0.987180000000    -0.101853   
C395     C      0.720350000000     0.401900000000     0.520200000000    -0.0017678  
C396     C      0.760280000000     0.406910000000     0.975160000000     0.323898   
C397     C      0.724740000000     0.151210000000     0.467030000000    -0.0156133  
C398     C      0.761250000000     0.147290000000     0.514700000000    -0.102289   
C399     C      0.700360000000     0.129560000000     0.984880000000    -0.00740468 
C400     C      0.736100000000     0.128520000000     0.033040000000     0.329018   
C401     C      0.702840000000     0.003390000000     0.890400000000    -0.0138608  
C402     C      0.744260000000     0.047220000000     0.892660000000    -0.0999405  
C403     C      0.722260000000     0.485560000000     0.864810000000    -0.00571315 
C404     C      0.762850000000     0.530550000000     0.865920000000     0.324599   
C405     C      0.752840000000     0.038780000000     0.613380000000    -0.0183783  
C406     C      0.710240000000     0.495750000000     0.615840000000    -0.10007    
C407     C      0.769930000000     0.022700000000     0.641490000000    -0.000187829
C408     C      0.729010000000     0.477970000000     0.641940000000     0.325567   
C409     C      0.018780000000     0.231000000000     0.897840000000    -0.0182303  
C410     C      0.981540000000     0.278680000000     0.893950000000    -0.106898   
C411     C      0.537130000000     0.243790000000     0.868550000000    -0.00282013 
C412     C      0.498840000000     0.290290000000     0.863800000000     0.32744    
C413     C      0.517010000000     0.294200000000     0.619600000000    -0.0178712  
C414     C      0.973920000000     0.252000000000     0.619430000000    -0.102147   
C415     C      0.536850000000     0.272540000000     0.642240000000    -0.00540199 
C416     C      0.993490000000     0.230650000000     0.641860000000     0.326893   
C417     C      0.634700000000     0.037940000000     0.762410000000    -0.0181924  
C418     C      0.635120000000     0.987570000000     0.728080000000    -0.106908   
C419     C      0.606790000000     0.524070000000     0.781800000000    -0.00299363 
C420     C      0.606820000000     0.474330000000     0.746710000000     0.327819   
C421     C      0.856400000000     0.028270000000     0.742280000000    -0.0166548  
C422     C      0.853700000000     0.480840000000     0.780820000000    -0.101936   
C423     C      0.886690000000     0.014340000000     0.727980000000     0.000767126
C424     C      0.887170000000     0.470670000000     0.770060000000     0.326573   
C425     C      0.539420000000     0.368620000000     0.766820000000    -0.0175654  
C426     C      0.495950000000     0.365420000000     0.725450000000    -0.103237   
C427     C      0.018640000000     0.391290000000     0.787320000000    -0.0022969  
C428     C      0.975390000000     0.387650000000     0.745840000000     0.331987   
C429     C      0.535540000000     0.139100000000     0.744940000000    -0.0135184  
C430     C      0.990260000000     0.144400000000     0.784140000000    -0.101202   
C431     C      0.517030000000     0.112840000000     0.726710000000    -0.00643113 
C432     C      0.972640000000     0.117180000000     0.766810000000     0.325398   
C433     C      0.995440000000     0.563560000000     0.252030000000     0.45744    
C434     C      0.496620000000     0.940860000000     0.263210000000     0.474671   
C435     C      0.936210000000     0.499880000000     0.254980000000     0.469648   
C436     C      0.556650000000     0.502430000000     0.260160000000     0.455379   
C437     C      0.017910000000     0.815770000000     0.249620000000     0.433836   
C438     C      0.014150000000     0.692980000000     0.259300000000     0.431444   
C439     C      0.516030000000     0.750800000000     0.193410000000     0.455068   
C440     C      0.515890000000     0.759560000000     0.315580000000     0.453538   
C441     C      0.684900000000     0.009400000000     0.250270000000     0.429981   
C442     C      0.805510000000     0.003220000000     0.255960000000     0.432195   
C443     C      0.747490000000     0.503320000000     0.192370000000     0.464733   
C444     C      0.742930000000     0.508190000000     0.314350000000     0.459731   
C445     C      0.720550000000     0.577910000000     0.006250000000     0.463559   
C446     C      0.736790000000     0.955460000000     0.500710000000     0.454955   
C447     C      0.730980000000     0.514990000000     0.064060000000     0.438833   
C448     C      0.726010000000     0.520170000000     0.442170000000     0.433741   
C449     C      0.496960000000     0.771450000000     0.068620000000     0.425923   
C450     C      0.002090000000     0.760980000000     0.446510000000     0.428504   
C451     C      0.560120000000     0.768880000000     0.010350000000     0.426993   
C452     C      0.939540000000     0.764700000000     0.004980000000     0.463627   
C453     C      0.689520000000     0.763890000000     0.000540000000     0.455496   
C454     C      0.810090000000     0.758610000000     0.996450000000     0.428562   
C455     C      0.746740000000     0.700660000000     0.492920000000     0.43232    
C456     C      0.753240000000     0.823720000000     0.504630000000     0.425563   
C457     C      0.858580000000     0.731910000000     0.015860000000    -0.0163188  
C458     C      0.860540000000     0.771200000000     0.469590000000    -0.10107    
C459     C      0.890040000000     0.745330000000     0.028500000000    -0.00329689 
C460     C      0.889620000000     0.787580000000     0.484340000000     0.326572   
C461     C      0.610000000000     0.796870000000     0.496640000000    -0.0175758  
C462     C      0.610040000000     0.748850000000     0.034100000000    -0.103302   
C463     C      0.638630000000     0.782800000000     0.478910000000    -0.00255761 
C464     C      0.640380000000     0.736370000000     0.018200000000     0.324364   
C465     C      0.739310000000     0.873580000000     0.034230000000    -0.0177224  
C466     C      0.776540000000     0.875850000000     0.487180000000    -0.102008   
C467     C      0.720350000000     0.901900000000     0.020200000000    -0.00181094 
C468     C      0.760280000000     0.906910000000     0.475160000000     0.323855   
C469     C      0.724740000000     0.651210000000     0.967030000000    -0.0156311  
C470     C      0.761250000000     0.647290000000     0.014700000000    -0.102396   
C471     C      0.700360000000     0.629560000000     0.484880000000    -0.00749058 
C472     C      0.736100000000     0.628520000000     0.533040000000     0.328845   
C473     C      0.702840000000     0.503390000000     0.390400000000    -0.0136159  
C474     C      0.744260000000     0.547220000000     0.392660000000    -0.0999243  
C475     C      0.722260000000     0.985560000000     0.364810000000    -0.00550311 
C476     C      0.762850000000     0.030550000000     0.365920000000     0.324602   
C477     C      0.752840000000     0.538780000000     0.113380000000    -0.0184103  
C478     C      0.710240000000     0.995750000000     0.115840000000    -0.0998868  
C479     C      0.769930000000     0.522700000000     0.141490000000    -0.000128064
C480     C      0.729010000000     0.977970000000     0.141940000000     0.325595   
C481     C      0.018780000000     0.731000000000     0.397840000000    -0.0182548  
C482     C      0.981540000000     0.778680000000     0.393950000000    -0.106899   
C483     C      0.537130000000     0.743800000000     0.368550000000    -0.0027573  
C484     C      0.498840000000     0.790290000000     0.363800000000     0.327442   
C485     C      0.517010000000     0.794190000000     0.119600000000    -0.0177571  
C486     C      0.973920000000     0.752000000000     0.119430000000    -0.102267   
C487     C      0.536850000000     0.772540000000     0.142240000000    -0.0054683  
C488     C      0.993490000000     0.730650000000     0.141860000000     0.32692    
C489     C      0.634700000000     0.537940000000     0.262410000000    -0.0181743  
C490     C      0.635120000000     0.487570000000     0.228080000000    -0.107074   
C491     C      0.606790000000     0.024070000000     0.281800000000    -0.00304224 
C492     C      0.606820000000     0.974320000000     0.246710000000     0.328015   
C493     C      0.856400000000     0.528270000000     0.242280000000    -0.0167031  
C494     C      0.853700000000     0.980840000000     0.280820000000    -0.101857   
C495     C      0.886690000000     0.514340000000     0.227980000000     0.000969829
C496     C      0.887170000000     0.970670000000     0.270060000000     0.326561   
C497     C      0.539420000000     0.868620000000     0.266820000000    -0.0175631  
C498     C      0.495950000000     0.865420000000     0.225450000000    -0.103218   
C499     C      0.018640000000     0.891290000000     0.287320000000    -0.00229635 
C500     C      0.975390000000     0.887650000000     0.245840000000     0.332009   
C501     C      0.535540000000     0.639100000000     0.244940000000    -0.0135004  
C502     C      0.990260000000     0.644400000000     0.284140000000    -0.101197   
C503     C      0.517030000000     0.612840000000     0.226710000000    -0.00645241 
C504     C      0.972640000000     0.617180000000     0.266810000000     0.325377   
C505     C      0.995440000000     0.563560000000     0.752030000000     0.457439   
C506     C      0.496620000000     0.940860000000     0.763210000000     0.47467    
C507     C      0.936210000000     0.499880000000     0.754980000000     0.469647   
C508     C      0.556650000000     0.502430000000     0.760160000000     0.455379   
C509     C      0.017910000000     0.815770000000     0.749620000000     0.433834   
C510     C      0.014150000000     0.692980000000     0.759300000000     0.431444   
C511     C      0.516030000000     0.750800000000     0.693410000000     0.455067   
C512     C      0.515890000000     0.759560000000     0.815580000000     0.453537   
C513     C      0.684900000000     0.009400000000     0.750270000000     0.42998    
C514     C      0.805510000000     0.003220000000     0.755960000000     0.432193   
C515     C      0.747490000000     0.503320000000     0.692370000000     0.464732   
C516     C      0.742930000000     0.508190000000     0.814350000000     0.459731   
C517     C      0.720550000000     0.577910000000     0.506250000000     0.463583   
C518     C      0.736790000000     0.955460000000     0.000710000000     0.454799   
C519     C      0.730980000000     0.514990000000     0.564070000000     0.438766   
C520     C      0.726010000000     0.520170000000     0.942170000000     0.433719   
C521     C      0.496960000000     0.771450000000     0.568620000000     0.42593    
C522     C      0.002090000000     0.760980000000     0.946510000000     0.428488   
C523     C      0.560120000000     0.768880000000     0.510350000000     0.427006   
C524     C      0.939540000000     0.764700000000     0.504980000000     0.46364    
C525     C      0.689520000000     0.763890000000     0.500540000000     0.455629   
C526     C      0.810090000000     0.758610000000     0.496450000000     0.428424   
C527     C      0.746740000000     0.700660000000     0.992920000000     0.432453   
C528     C      0.753240000000     0.823720000000     0.004630000000     0.42543    
C529     C      0.858580000000     0.731910000000     0.515860000000    -0.0162374  
C530     C      0.860540000000     0.771200000000     0.969590000000    -0.101109   
C531     C      0.890040000000     0.745330000000     0.528500000000    -0.00331361 
C532     C      0.889620000000     0.787580000000     0.984340000000     0.326774   
C533     C      0.610000000000     0.796870000000     0.996640000000    -0.0173686  
C534     C      0.610040000000     0.748850000000     0.534100000000    -0.1033     
C535     C      0.638630000000     0.782800000000     0.978910000000    -0.00253149 
C536     C      0.640380000000     0.736370000000     0.518200000000     0.324375   
C537     C      0.739310000000     0.873580000000     0.534230000000    -0.0177698  
C538     C      0.776540000000     0.875850000000     0.987180000000    -0.101854   
C539     C      0.720350000000     0.901900000000     0.520200000000    -0.00178063 
C540     C      0.760280000000     0.906910000000     0.975160000000     0.323894   
C541     C      0.724740000000     0.651210000000     0.467030000000    -0.0156261  
C542     C      0.761250000000     0.647290000000     0.514700000000    -0.102258   
C543     C      0.700360000000     0.629560000000     0.984880000000    -0.00740505 
C544     C      0.736100000000     0.628520000000     0.033040000000     0.328878   
C545     C      0.702840000000     0.503390000000     0.890400000000    -0.013618   
C546     C      0.744260000000     0.547220000000     0.892660000000    -0.0999264  
C547     C      0.722260000000     0.985560000000     0.864810000000    -0.00550251 
C548     C      0.762850000000     0.030550000000     0.865920000000     0.324603   
C549     C      0.752840000000     0.538780000000     0.613380000000    -0.018395   
C550     C      0.710240000000     0.995750000000     0.615840000000    -0.0998729  
C551     C      0.769930000000     0.522700000000     0.641490000000    -0.000132179
C552     C      0.729010000000     0.977970000000     0.641940000000     0.325592   
C553     C      0.018780000000     0.731000000000     0.897840000000    -0.0182567  
C554     C      0.981540000000     0.778680000000     0.893950000000    -0.1069     
C555     C      0.537130000000     0.743800000000     0.868550000000    -0.00275641 
C556     C      0.498840000000     0.790290000000     0.863800000000     0.327443   
C557     C      0.517010000000     0.794190000000     0.619600000000    -0.0177557  
C558     C      0.973920000000     0.752000000000     0.619430000000    -0.102209   
C559     C      0.536850000000     0.772540000000     0.642240000000    -0.00547023 
C560     C      0.993490000000     0.730650000000     0.641860000000     0.326905   
C561     C      0.634700000000     0.537940000000     0.762410000000    -0.0181743  
C562     C      0.635120000000     0.487570000000     0.728080000000    -0.107074   
C563     C      0.606790000000     0.024070000000     0.781800000000    -0.00304312 
C564     C      0.606820000000     0.974320000000     0.746710000000     0.328014   
C565     C      0.856400000000     0.528270000000     0.742280000000    -0.0167442  
C566     C      0.853700000000     0.980840000000     0.780820000000    -0.101858   
C567     C      0.886690000000     0.514340000000     0.727980000000     0.000985282
C568     C      0.887170000000     0.970670000000     0.770060000000     0.326562   
C569     C      0.539420000000     0.868620000000     0.766820000000    -0.0175668  
C570     C      0.495950000000     0.865420000000     0.725450000000    -0.103291   
C571     C      0.018640000000     0.891290000000     0.787320000000    -0.00229599 
C572     C      0.975390000000     0.887650000000     0.745840000000     0.332027   
C573     C      0.535540000000     0.639100000000     0.744940000000    -0.0135007  
C574     C      0.990260000000     0.644400000000     0.784140000000    -0.101198   
C575     C      0.517030000000     0.612840000000     0.726710000000    -0.00645282 
C576     C      0.972640000000     0.617180000000     0.766810000000     0.325377   
F1       F      0.408280000000     0.300120000000     0.459840000000    -0.429573   
F2       F      0.159230000000     0.221390000000     0.041130000000    -0.432963   
F3       F      0.282960000000     0.427760000000     0.462680000000    -0.426348   
F4       F      0.250140000000     0.108250000000     0.055550000000    -0.438742   
F5       F      0.277860000000     0.053730000000     0.347160000000    -0.426841   
F6       F      0.207990000000     0.461570000000     0.161800000000    -0.433916   
F7       F      0.477470000000     0.305310000000     0.343290000000    -0.425884   
F8       F      0.473600000000     0.212300000000     0.161200000000    -0.430698   
F9       F      0.088190000000     0.955450000000     0.226580000000    -0.433439   
F10      F      0.404050000000     0.459450000000     0.296410000000    -0.413813   
F11      F      0.955380000000     0.405790000000     0.226420000000    -0.42267    
F12      F      0.454490000000     0.099770000000     0.288610000000    -0.42611    
F13      F      0.408280000000     0.300120000000     0.959840000000    -0.429568   
F14      F      0.159230000000     0.221390000000     0.541130000000    -0.432956   
F15      F      0.282960000000     0.427760000000     0.962680000000    -0.426325   
F16      F      0.250140000000     0.108250000000     0.555550000000    -0.438739   
F17      F      0.277860000000     0.053730000000     0.847160000000    -0.426838   
F18      F      0.207990000000     0.461570000000     0.661800000000    -0.433916   
F19      F      0.477470000000     0.305310000000     0.843290000000    -0.425882   
F20      F      0.473600000000     0.212300000000     0.661200000000    -0.430694   
F21      F      0.088190000000     0.955450000000     0.726580000000    -0.433439   
F22      F      0.404050000000     0.459450000000     0.796410000000    -0.41381    
F23      F      0.955380000000     0.405790000000     0.726420000000    -0.422672   
F24      F      0.454490000000     0.099770000000     0.788610000000    -0.426107   
F25      F      0.408280000000     0.800120000000     0.459840000000    -0.42957    
F26      F      0.159230000000     0.721400000000     0.041130000000    -0.433021   
F27      F      0.282960000000     0.927760000000     0.462680000000    -0.426326   
F28      F      0.250140000000     0.608240000000     0.055550000000    -0.438675   
F29      F      0.277860000000     0.553730000000     0.347160000000    -0.426834   
F30      F      0.207990000000     0.961570000000     0.161800000000    -0.433895   
F31      F      0.477470000000     0.805310000000     0.343290000000    -0.42589    
F32      F      0.473600000000     0.712300000000     0.161200000000    -0.430702   
F33      F      0.088190000000     0.455450000000     0.226580000000    -0.433393   
F34      F      0.404050000000     0.959450000000     0.296410000000    -0.413801   
F35      F      0.955380000000     0.905790000000     0.226420000000    -0.422666   
F36      F      0.454490000000     0.599770000000     0.288610000000    -0.426095   
F37      F      0.408280000000     0.800120000000     0.959840000000    -0.429565   
F38      F      0.159230000000     0.721400000000     0.541130000000    -0.433013   
F39      F      0.282960000000     0.927760000000     0.962680000000    -0.426303   
F40      F      0.250140000000     0.608240000000     0.555550000000    -0.438672   
F41      F      0.277860000000     0.553730000000     0.847160000000    -0.426831   
F42      F      0.207990000000     0.961570000000     0.661800000000    -0.433895   
F43      F      0.477470000000     0.805310000000     0.843290000000    -0.425888   
F44      F      0.473600000000     0.712300000000     0.661200000000    -0.430698   
F45      F      0.088190000000     0.455450000000     0.726580000000    -0.433393   
F46      F      0.404050000000     0.959450000000     0.796410000000    -0.413798   
F47      F      0.955380000000     0.905790000000     0.726420000000    -0.422669   
F48      F      0.454490000000     0.599770000000     0.788610000000    -0.426092   
F49      F      0.908280000000     0.300120000000     0.459840000000    -0.429556   
F50      F      0.659230000000     0.221390000000     0.041130000000    -0.432963   
F51      F      0.782960000000     0.427760000000     0.462680000000    -0.426337   
F52      F      0.750140000000     0.108250000000     0.055550000000    -0.438739   
F53      F      0.777860000000     0.053730000000     0.347160000000    -0.426837   
F54      F      0.707990000000     0.461570000000     0.161800000000    -0.433915   
F55      F      0.977470000000     0.305310000000     0.343290000000    -0.425872   
F56      F      0.973600000000     0.212300000000     0.161200000000    -0.430685   
F57      F      0.588190000000     0.955450000000     0.226580000000    -0.433427   
F58      F      0.904050000000     0.459450000000     0.296410000000    -0.413797   
F59      F      0.455370000000     0.405790000000     0.226420000000    -0.42263    
F60      F      0.954490000000     0.099770000000     0.288610000000    -0.426072   
F61      F      0.908280000000     0.300120000000     0.959840000000    -0.429552   
F62      F      0.659230000000     0.221390000000     0.541130000000    -0.432956   
F63      F      0.782960000000     0.427760000000     0.962680000000    -0.426314   
F64      F      0.750140000000     0.108250000000     0.555550000000    -0.438736   
F65      F      0.777860000000     0.053730000000     0.847160000000    -0.426834   
F66      F      0.707990000000     0.461570000000     0.661800000000    -0.433916   
F67      F      0.977470000000     0.305310000000     0.843290000000    -0.42587    
F68      F      0.973600000000     0.212300000000     0.661200000000    -0.43068    
F69      F      0.588190000000     0.955450000000     0.726580000000    -0.433427   
F70      F      0.904050000000     0.459450000000     0.796410000000    -0.413794   
F71      F      0.455370000000     0.405790000000     0.726420000000    -0.422633   
F72      F      0.954490000000     0.099770000000     0.788610000000    -0.426069   
F73      F      0.908280000000     0.800120000000     0.459840000000    -0.429553   
F74      F      0.659230000000     0.721400000000     0.041130000000    -0.433021   
F75      F      0.782960000000     0.927760000000     0.462680000000    -0.426315   
F76      F      0.750140000000     0.608240000000     0.055550000000    -0.438672   
F77      F      0.777860000000     0.553730000000     0.347160000000    -0.426831   
F78      F      0.707990000000     0.961570000000     0.161800000000    -0.433895   
F79      F      0.977470000000     0.805310000000     0.343290000000    -0.425878   
F80      F      0.973600000000     0.712300000000     0.161200000000    -0.430689   
F81      F      0.588190000000     0.455450000000     0.226580000000    -0.433381   
F82      F      0.904050000000     0.959450000000     0.296410000000    -0.413784   
F83      F      0.455370000000     0.905790000000     0.226420000000    -0.422627   
F84      F      0.954490000000     0.599770000000     0.288610000000    -0.426057   
F85      F      0.908280000000     0.800120000000     0.959840000000    -0.429549   
F86      F      0.659230000000     0.721400000000     0.541130000000    -0.433014   
F87      F      0.782960000000     0.927760000000     0.962680000000    -0.426292   
F88      F      0.750140000000     0.608240000000     0.555550000000    -0.438669   
F89      F      0.777860000000     0.553730000000     0.847160000000    -0.426828   
F90      F      0.707990000000     0.961570000000     0.661800000000    -0.433895   
F91      F      0.977470000000     0.805310000000     0.843290000000    -0.425875   
F92      F      0.973600000000     0.712300000000     0.661200000000    -0.430684   
F93      F      0.588190000000     0.455450000000     0.726580000000    -0.433381   
F94      F      0.904050000000     0.959450000000     0.796410000000    -0.413781   
F95      F      0.455370000000     0.905790000000     0.726420000000    -0.422629   
F96      F      0.954490000000     0.599770000000     0.788610000000    -0.426054   
H1       H      0.368540000000     0.252490000000     0.452100000000     0.0955529  
H2       H      0.363890000000     0.209950000000     0.501290000000     0.0507936  
H3       H      0.404610000000     0.225070000000     0.038260000000     0.0485963  
H4       H      0.346260000000     0.289690000000     0.456510000000     0.094401   
H5       H      0.381640000000     0.307880000000     0.000010000000     0.00423631 
H6       H      0.343580000000     0.224010000000     0.036420000000     0.0522419  
H7       H      0.384710000000     0.261910000000     0.048890000000     0.0459163  
H8       H      0.116870000000     0.262940000000     0.055830000000     0.0902821  
H9       H      0.118590000000     0.314190000000     0.015210000000     0.0498846  
H10      H      0.152970000000     0.303080000000     0.468850000000     0.0439204  
H11      H      0.095530000000     0.227900000000     0.042330000000     0.0901214  
H12      H      0.133440000000     0.217660000000     0.500270000000    -0.00534592 
H13      H      0.095090000000     0.310460000000     0.479160000000     0.0497305  
H14      H      0.130050000000     0.267530000000     0.458650000000     0.0427851  
H15      H      0.297600000000     0.383120000000     0.501570000000     0.0970267  
H16      H      0.257250000000     0.383360000000     0.051260000000     0.0559667  
H17      H      0.209370000000     0.415790000000     0.040270000000     0.0468541  
H18      H      0.285380000000     0.361610000000     0.466300000000     0.0927831  
H19      H      0.244070000000     0.399970000000     0.455230000000    -0.00197454 
H20      H      0.222960000000     0.357300000000     0.047670000000     0.0523736  
H21      H      0.201010000000     0.392050000000     0.004860000000     0.0446398  
H22      H      0.277050000000     0.129660000000     0.002330000000     0.0918944  
H23      H      0.239500000000     0.135340000000     0.951440000000     0.0493039  
H24      H      0.187900000000     0.113710000000     0.467270000000     0.0435863  
H25      H      0.276100000000     0.161530000000     0.031710000000     0.0939882  
H26      H      0.220880000000     0.146250000000     0.546030000000     0.0142696  
H27      H      0.211930000000     0.168810000000     0.451460000000     0.0508871  
H28      H      0.182560000000     0.145670000000     0.496480000000     0.0579699  
H29      H      0.228540000000     0.065730000000     0.381480000000     0.0869235  
H30      H      0.185270000000     0.019290000000     0.378170000000     0.0461268  
H31      H      0.205750000000     0.472120000000     0.348730000000     0.0481511  
H32      H      0.260860000000     0.060190000000     0.409010000000     0.091879   
H33      H      0.281480000000     0.515370000000     0.377390000000     0.0115331  
H34      H      0.189830000000     0.485310000000     0.405250000000     0.0504355  
H35      H      0.237970000000     0.467670000000     0.376930000000     0.0578618  
H36      H      0.192520000000     0.511920000000     0.127510000000     0.0937528  
H37      H      0.237820000000     0.058640000000     0.123160000000     0.0675516  
H38      H      0.281170000000     0.041590000000     0.156840000000     0.0488724  
H39      H      0.197390000000     0.477680000000     0.100800000000     0.0884081  
H40      H      0.245000000000     0.460040000000     0.130250000000     0.000725833
H41      H      0.270510000000     0.050070000000     0.096960000000     0.0758134  
H42      H      0.289240000000     0.007340000000     0.131520000000     0.0468951  
H43      H      0.460660000000     0.264130000000     0.386250000000     0.105338   
H44      H      0.501080000000     0.212870000000     0.389460000000     0.0543666  
H45      H      0.047370000000     0.222900000000     0.355150000000     0.0441845  
H46      H      0.472390000000     0.300030000000     0.407430000000     0.114179   
H47      H      0.016540000000     0.308780000000     0.371370000000    -0.0019901  
H48      H      0.035620000000     0.218630000000     0.414400000000     0.0484217  
H49      H      0.056950000000     0.259330000000     0.377170000000     0.0429255  
H50      H      0.457670000000     0.266970000000     0.134390000000     0.0922955  
H51      H      0.503220000000     0.311590000000     0.134500000000     0.0527412  
H52      H      0.051370000000     0.288280000000     0.158230000000     0.0493074  
H53      H      0.459090000000     0.236580000000     0.103410000000     0.0890294  
H54      H      0.007480000000     0.213660000000     0.126690000000     0.00198739 
H55      H      0.033130000000     0.308190000000     0.103590000000     0.0495016  
H56      H      0.053180000000     0.257610000000     0.127350000000     0.0472738  
H57      H      0.126000000000     0.000160000000     0.206310000000     0.0987998  
H58      H      0.125080000000     0.053800000000     0.243100000000     0.0502339  
H59      H      0.091580000000     0.544400000000     0.290360000000     0.0436271  
H60      H      0.150270000000     0.967120000000     0.219790000000     0.111255   
H61      H      0.116150000000     0.458360000000     0.266070000000    -0.00269869 
H62      H      0.149750000000     0.052990000000     0.278540000000     0.0488021  
H63      H      0.116370000000     0.511080000000     0.303130000000     0.0432093  
H64      H      0.355860000000     0.994330000000     0.303870000000     0.109398   
H65      H      0.362710000000     0.046720000000     0.260720000000     0.0716187  
H66      H      0.400960000000     0.034490000000     0.217550000000     0.0549743  
H67      H      0.339370000000     0.458750000000     0.285880000000     0.0971198  
H68      H      0.384510000000     0.450070000000     0.253000000000     0.0164187  
H69      H      0.342830000000     0.040570000000     0.222810000000     0.0538382  
H70      H      0.380400000000     0.497130000000     0.208390000000     0.0527794  
H71      H      0.009230000000     0.380640000000     0.207930000000     0.0971911  
H72      H      0.055000000000     0.383780000000     0.251330000000     0.0683189  
H73      H      0.534100000000     0.408590000000     0.300610000000     0.0555258  
H74      H      0.980790000000     0.348330000000     0.211570000000     0.094579   
H75      H      0.460460000000     0.372110000000     0.261620000000     0.0202366  
H76      H      0.054630000000     0.353690000000     0.282910000000     0.0562919  
H77      H      0.505410000000     0.376330000000     0.305070000000     0.0687057  
H78      H      0.503550000000     0.133510000000     0.304550000000     0.0893008  
H79      H      0.051560000000     0.127060000000     0.262500000000     0.0462632  
H80      H      0.034130000000     0.095620000000     0.215550000000     0.0494706  
H81      H      0.472890000000     0.161890000000     0.294380000000     0.0957595  
H82      H      0.456240000000     0.128630000000     0.249220000000     0.00875524 
H83      H      0.050300000000     0.153010000000     0.227570000000     0.0532033  
H84      H      0.003130000000     0.124660000000     0.207240000000     0.0589426  
H85      H      0.368540000000     0.252490000000     0.952100000000     0.0955786  
H86      H      0.363890000000     0.209950000000     0.001290000000     0.0507764  
H87      H      0.404610000000     0.225070000000     0.538260000000     0.0486042  
H88      H      0.346260000000     0.289690000000     0.956510000000     0.0944212  
H89      H      0.381640000000     0.307880000000     0.500010000000     0.00434812 
H90      H      0.343580000000     0.224010000000     0.536420000000     0.0522358  
H91      H      0.384710000000     0.261910000000     0.548890000000     0.0459255  
H92      H      0.116870000000     0.262940000000     0.555830000000     0.0902841  
H93      H      0.118590000000     0.314190000000     0.515210000000     0.0499869  
H94      H      0.152970000000     0.303080000000     0.968850000000     0.0439423  
H95      H      0.095530000000     0.227900000000     0.542330000000     0.0901268  
H96      H      0.133440000000     0.217660000000     0.000270000000    -0.00537722 
H97      H      0.095090000000     0.310460000000     0.979160000000     0.0497215  
H98      H      0.130050000000     0.267530000000     0.958650000000     0.0428017  
H99      H      0.297600000000     0.383120000000     0.001570000000     0.0969288  
H100     H      0.257250000000     0.383360000000     0.551260000000     0.0559805  
H101     H      0.209370000000     0.415790000000     0.540270000000     0.0468495  
H102     H      0.285380000000     0.361610000000     0.966300000000     0.0927683  
H103     H      0.244070000000     0.399970000000     0.955230000000    -0.00196312 
H104     H      0.222960000000     0.357300000000     0.547670000000     0.0523855  
H105     H      0.201010000000     0.392050000000     0.504860000000     0.0446614  
H106     H      0.277050000000     0.129660000000     0.502330000000     0.0918958  
H107     H      0.239500000000     0.135340000000     0.451440000000     0.0492827  
H108     H      0.187900000000     0.113710000000     0.967270000000     0.0435958  
H109     H      0.276100000000     0.161530000000     0.531720000000     0.0939582  
H110     H      0.220880000000     0.146250000000     0.046030000000     0.0142491  
H111     H      0.211930000000     0.168810000000     0.951460000000     0.0508951  
H112     H      0.182560000000     0.145670000000     0.996480000000     0.0579963  
H113     H      0.228540000000     0.065730000000     0.881480000000     0.086928   
H114     H      0.185270000000     0.019290000000     0.878170000000     0.0461324  
H115     H      0.205750000000     0.472120000000     0.848730000000     0.0481531  
H116     H      0.260860000000     0.060190000000     0.909010000000     0.0918907  
H117     H      0.281480000000     0.515370000000     0.877390000000     0.0115386  
H118     H      0.189830000000     0.485310000000     0.905250000000     0.0504474  
H119     H      0.237970000000     0.467670000000     0.876930000000     0.057866   
H120     H      0.192520000000     0.511920000000     0.627510000000     0.09375    
H121     H      0.237820000000     0.058640000000     0.623160000000     0.067548   
H122     H      0.281170000000     0.041590000000     0.656840000000     0.0488735  
H123     H      0.197390000000     0.477680000000     0.600800000000     0.0884034  
H124     H      0.245000000000     0.460040000000     0.630250000000     0.000727063
H125     H      0.270510000000     0.050070000000     0.596960000000     0.0758079  
H126     H      0.289240000000     0.007340000000     0.631520000000     0.0468976  
H127     H      0.460660000000     0.264130000000     0.886250000000     0.105344   
H128     H      0.501080000000     0.212870000000     0.889460000000     0.0543744  
H129     H      0.047370000000     0.222900000000     0.855150000000     0.0441871  
H130     H      0.472390000000     0.300030000000     0.907430000000     0.114189   
H131     H      0.016540000000     0.308780000000     0.871370000000    -0.0019849  
H132     H      0.035620000000     0.218630000000     0.914400000000     0.0484354  
H133     H      0.056950000000     0.259330000000     0.877170000000     0.0429303  
H134     H      0.457670000000     0.266970000000     0.634390000000     0.0922845  
H135     H      0.503220000000     0.311590000000     0.634500000000     0.0527419  
H136     H      0.051370000000     0.288280000000     0.658230000000     0.0493076  
H137     H      0.459090000000     0.236580000000     0.603400000000     0.0890017  
H138     H      0.007480000000     0.213660000000     0.626690000000     0.00199248 
H139     H      0.033130000000     0.308190000000     0.603590000000     0.0495033  
H140     H      0.053180000000     0.257610000000     0.627350000000     0.0472739  
H141     H      0.126000000000     0.000160000000     0.706310000000     0.0988002  
H142     H      0.125080000000     0.053800000000     0.743100000000     0.0502337  
H143     H      0.091580000000     0.544400000000     0.790360000000     0.0436293  
H144     H      0.150270000000     0.967120000000     0.719790000000     0.111255   
H145     H      0.116150000000     0.458360000000     0.766070000000    -0.00269798 
H146     H      0.149750000000     0.052990000000     0.778540000000     0.0488026  
H147     H      0.116370000000     0.511080000000     0.803130000000     0.0432122  
H148     H      0.355860000000     0.994330000000     0.803870000000     0.109401   
H149     H      0.362710000000     0.046720000000     0.760720000000     0.0716274  
H150     H      0.400960000000     0.034490000000     0.717550000000     0.0549719  
H151     H      0.339370000000     0.458750000000     0.785880000000     0.0971211  
H152     H      0.384510000000     0.450070000000     0.753000000000     0.0164186  
H153     H      0.342830000000     0.040570000000     0.722820000000     0.0538569  
H154     H      0.380400000000     0.497130000000     0.708390000000     0.0527777  
H155     H      0.009230000000     0.380640000000     0.707940000000     0.0972272  
H156     H      0.055000000000     0.383780000000     0.751330000000     0.068318   
H157     H      0.534100000000     0.408590000000     0.800610000000     0.0555286  
H158     H      0.980790000000     0.348330000000     0.711570000000     0.0945991  
H159     H      0.460460000000     0.372110000000     0.761620000000     0.0202338  
H160     H      0.054630000000     0.353690000000     0.782910000000     0.0562936  
H161     H      0.505410000000     0.376330000000     0.805070000000     0.0687084  
H162     H      0.503550000000     0.133510000000     0.804550000000     0.0893043  
H163     H      0.051560000000     0.127060000000     0.762500000000     0.0462639  
H164     H      0.034130000000     0.095620000000     0.715550000000     0.0494712  
H165     H      0.472890000000     0.161890000000     0.794380000000     0.0957614  
H166     H      0.456240000000     0.128630000000     0.749220000000     0.00875522 
H167     H      0.050300000000     0.153010000000     0.727570000000     0.0532032  
H168     H      0.003130000000     0.124660000000     0.707240000000     0.0589433  
H169     H      0.368540000000     0.752490000000     0.452100000000     0.0955535  
H170     H      0.363890000000     0.709950000000     0.501290000000     0.0507948  
H171     H      0.404610000000     0.725070000000     0.038260000000     0.0485974  
H172     H      0.346260000000     0.789690000000     0.456510000000     0.0944024  
H173     H      0.381640000000     0.807880000000     0.000010000000     0.0042395  
H174     H      0.343580000000     0.724010000000     0.036420000000     0.0522422  
H175     H      0.384710000000     0.761910000000     0.048890000000     0.0459172  
H176     H      0.116870000000     0.762940000000     0.055830000000     0.0902987  
H177     H      0.118590000000     0.814190000000     0.015210000000     0.0498909  
H178     H      0.152970000000     0.803080000000     0.468850000000     0.043922   
H179     H      0.095530000000     0.727900000000     0.042330000000     0.0901271  
H180     H      0.133440000000     0.717660000000     0.500270000000    -0.00538611 
H181     H      0.095090000000     0.810460000000     0.479160000000     0.0497344  
H182     H      0.130050000000     0.767530000000     0.458650000000     0.0427823  
H183     H      0.297600000000     0.883120000000     0.501570000000     0.0970334  
H184     H      0.257250000000     0.883360000000     0.051260000000     0.055972   
H185     H      0.209370000000     0.915800000000     0.040270000000     0.0468741  
H186     H      0.285380000000     0.861610000000     0.466300000000     0.0927861  
H187     H      0.244070000000     0.899980000000     0.455230000000    -0.0019718  
H188     H      0.222960000000     0.857300000000     0.047670000000     0.052379   
H189     H      0.201010000000     0.892050000000     0.004860000000     0.0446491  
H190     H      0.277050000000     0.629660000000     0.002330000000     0.0918884  
H191     H      0.239500000000     0.635340000000     0.951440000000     0.0493075  
H192     H      0.187900000000     0.613710000000     0.467270000000     0.0435874  
H193     H      0.276100000000     0.661530000000     0.031710000000     0.0939766  
H194     H      0.220880000000     0.646250000000     0.546030000000     0.0142892  
H195     H      0.211930000000     0.668810000000     0.451460000000     0.0508914  
H196     H      0.182560000000     0.645670000000     0.496480000000     0.0579662  
H197     H      0.228540000000     0.565730000000     0.381480000000     0.08692    
H198     H      0.185270000000     0.519290000000     0.378170000000     0.0460943  
H199     H      0.205750000000     0.972120000000     0.348730000000     0.0481309  
H200     H      0.260860000000     0.560190000000     0.409010000000     0.0918793  
H201     H      0.281480000000     0.015370000000     0.377390000000     0.011506   
H202     H      0.189830000000     0.985310000000     0.405250000000     0.0505596  
H203     H      0.237970000000     0.967670000000     0.376930000000     0.0578433  
H204     H      0.192520000000     0.011920000000     0.127510000000     0.0936526  
H205     H      0.237820000000     0.558640000000     0.123160000000     0.0675575  
H206     H      0.281170000000     0.541600000000     0.156840000000     0.0488616  
H207     H      0.197390000000     0.977680000000     0.100800000000     0.0883959  
H208     H      0.245000000000     0.960040000000     0.130250000000     0.000743886
H209     H      0.270510000000     0.550070000000     0.096960000000     0.0758254  
H210     H      0.289240000000     0.507330000000     0.131520000000     0.046912   
H211     H      0.460660000000     0.764130000000     0.386250000000     0.105341   
H212     H      0.501080000000     0.712870000000     0.389460000000     0.0543743  
H213     H      0.047370000000     0.722900000000     0.355150000000     0.044166   
H214     H      0.472390000000     0.800030000000     0.407430000000     0.114182   
H215     H      0.016540000000     0.808780000000     0.371370000000    -0.00199015 
H216     H      0.035620000000     0.718630000000     0.414400000000     0.0484279  
H217     H      0.056950000000     0.759330000000     0.377170000000     0.042907   
H218     H      0.457670000000     0.766960000000     0.134390000000     0.0923271  
H219     H      0.503220000000     0.811590000000     0.134500000000     0.0527109  
H220     H      0.051370000000     0.788270000000     0.158230000000     0.0493298  
H221     H      0.459090000000     0.736580000000     0.103410000000     0.089041   
H222     H      0.007480000000     0.713660000000     0.126690000000     0.0019849  
H223     H      0.033130000000     0.808190000000     0.103590000000     0.0494709  
H224     H      0.053180000000     0.757610000000     0.127350000000     0.0472862  
H225     H      0.126000000000     0.500160000000     0.206310000000     0.0989001  
H226     H      0.125080000000     0.553800000000     0.243100000000     0.0502345  
H227     H      0.091580000000     0.044400000000     0.290360000000     0.0436328  
H228     H      0.150270000000     0.467120000000     0.219790000000     0.111278   
H229     H      0.116150000000     0.958360000000     0.266070000000    -0.00277159 
H230     H      0.149750000000     0.553000000000     0.278540000000     0.0487925  
H231     H      0.116370000000     0.011080000000     0.303130000000     0.0432003  
H232     H      0.355860000000     0.494330000000     0.303870000000     0.109375   
H233     H      0.362710000000     0.546710000000     0.260720000000     0.0716608  
H234     H      0.400960000000     0.534490000000     0.217550000000     0.0549462  
H235     H      0.339370000000     0.958750000000     0.285880000000     0.0971171  
H236     H      0.384510000000     0.950070000000     0.253000000000     0.0164298  
H237     H      0.342830000000     0.540570000000     0.222810000000     0.0538698  
H238     H      0.380400000000     0.997130000000     0.208390000000     0.0528994  
H239     H      0.009230000000     0.880630000000     0.207930000000     0.0972145  
H240     H      0.055000000000     0.883780000000     0.251330000000     0.0683233  
H241     H      0.534100000000     0.908590000000     0.300610000000     0.0555367  
H242     H      0.980790000000     0.848330000000     0.211570000000     0.0945927  
H243     H      0.460460000000     0.872120000000     0.261620000000     0.0202043  
H244     H      0.054630000000     0.853690000000     0.282910000000     0.0562931  
H245     H      0.505410000000     0.876330000000     0.305070000000     0.0687093  
H246     H      0.503550000000     0.633510000000     0.304550000000     0.0893021  
H247     H      0.051560000000     0.627060000000     0.262500000000     0.0462603  
H248     H      0.034130000000     0.595620000000     0.215550000000     0.0494857  
H249     H      0.472890000000     0.661890000000     0.294380000000     0.0957618  
H250     H      0.456240000000     0.628630000000     0.249220000000     0.00876219 
H251     H      0.050300000000     0.653020000000     0.227570000000     0.0532039  
H252     H      0.003130000000     0.624660000000     0.207240000000     0.0589503  
H253     H      0.368540000000     0.752490000000     0.952100000000     0.0955792  
H254     H      0.363890000000     0.709950000000     0.001290000000     0.0507777  
H255     H      0.404610000000     0.725070000000     0.538260000000     0.0486053  
H256     H      0.346260000000     0.789690000000     0.956510000000     0.0944225  
H257     H      0.381640000000     0.807880000000     0.500010000000     0.0043513  
H258     H      0.343580000000     0.724010000000     0.536420000000     0.0522361  
H259     H      0.384710000000     0.761910000000     0.548890000000     0.0459264  
H260     H      0.116870000000     0.762940000000     0.555830000000     0.0903007  
H261     H      0.118590000000     0.814190000000     0.515210000000     0.0499933  
H262     H      0.152970000000     0.803080000000     0.968850000000     0.043944   
H263     H      0.095530000000     0.727900000000     0.542330000000     0.0901325  
H264     H      0.133440000000     0.717660000000     0.000270000000    -0.0054174  
H265     H      0.095090000000     0.810460000000     0.979160000000     0.0497255  
H266     H      0.130050000000     0.767530000000     0.958650000000     0.0427989  
H267     H      0.297600000000     0.883120000000     0.001570000000     0.0969356  
H268     H      0.257250000000     0.883360000000     0.551260000000     0.0559857  
H269     H      0.209370000000     0.915800000000     0.540270000000     0.0468695  
H270     H      0.285380000000     0.861610000000     0.966300000000     0.0927713  
H271     H      0.244070000000     0.899980000000     0.955230000000    -0.00196038 
H272     H      0.222960000000     0.857300000000     0.547670000000     0.0523909  
H273     H      0.201010000000     0.892050000000     0.504860000000     0.0446707  
H274     H      0.277050000000     0.629660000000     0.502330000000     0.0918898  
H275     H      0.239500000000     0.635340000000     0.451440000000     0.0492863  
H276     H      0.187900000000     0.613710000000     0.967270000000     0.0435969  
H277     H      0.276100000000     0.661530000000     0.531720000000     0.0939466  
H278     H      0.220880000000     0.646250000000     0.046030000000     0.0142687  
H279     H      0.211930000000     0.668810000000     0.951460000000     0.0508994  
H280     H      0.182560000000     0.645670000000     0.996480000000     0.0579925  
H281     H      0.228540000000     0.565730000000     0.881480000000     0.0869246  
H282     H      0.185270000000     0.519290000000     0.878170000000     0.0461     
H283     H      0.205750000000     0.972120000000     0.848730000000     0.0481329  
H284     H      0.260860000000     0.560190000000     0.909010000000     0.0918909  
H285     H      0.281480000000     0.015370000000     0.877390000000     0.0115115  
H286     H      0.189830000000     0.985310000000     0.905250000000     0.0505715  
H287     H      0.237970000000     0.967670000000     0.876930000000     0.0578476  
H288     H      0.192520000000     0.011920000000     0.627510000000     0.0936498  
H289     H      0.237820000000     0.558640000000     0.623160000000     0.0675539  
H290     H      0.281170000000     0.541600000000     0.656840000000     0.0488627  
H291     H      0.197390000000     0.977680000000     0.600800000000     0.0883912  
H292     H      0.245000000000     0.960040000000     0.630250000000     0.000745116
H293     H      0.270510000000     0.550070000000     0.596960000000     0.07582    
H294     H      0.289240000000     0.507330000000     0.631520000000     0.0469145  
H295     H      0.460660000000     0.764130000000     0.886250000000     0.105346   
H296     H      0.501080000000     0.712870000000     0.889460000000     0.0543821  
H297     H      0.047370000000     0.722900000000     0.855150000000     0.0441687  
H298     H      0.472390000000     0.800030000000     0.907430000000     0.114192   
H299     H      0.016540000000     0.808780000000     0.871370000000    -0.00198495 
H300     H      0.035620000000     0.718630000000     0.914400000000     0.0484416  
H301     H      0.056950000000     0.759330000000     0.877170000000     0.0429117  
H302     H      0.457670000000     0.766960000000     0.634390000000     0.0923161  
H303     H      0.503220000000     0.811590000000     0.634500000000     0.0527115  
H304     H      0.051370000000     0.788270000000     0.658230000000     0.04933    
H305     H      0.459090000000     0.736580000000     0.603400000000     0.0890133  
H306     H      0.007480000000     0.713660000000     0.626690000000     0.00198999 
H307     H      0.033130000000     0.808190000000     0.603590000000     0.0494726  
H308     H      0.053180000000     0.757610000000     0.627350000000     0.0472863  
H309     H      0.126000000000     0.500160000000     0.706310000000     0.0989005  
H310     H      0.125080000000     0.553800000000     0.743100000000     0.0502344  
H311     H      0.091580000000     0.044400000000     0.790360000000     0.043635   
H312     H      0.150270000000     0.467120000000     0.719790000000     0.111277   
H313     H      0.116150000000     0.958360000000     0.766070000000    -0.00277088 
H314     H      0.149750000000     0.553000000000     0.778540000000     0.048793   
H315     H      0.116370000000     0.011080000000     0.803130000000     0.0432032  
H316     H      0.355860000000     0.494330000000     0.803870000000     0.109379   
H317     H      0.362710000000     0.546710000000     0.760720000000     0.0716695  
H318     H      0.400960000000     0.534490000000     0.717550000000     0.0549438  
H319     H      0.339370000000     0.958750000000     0.785880000000     0.0971183  
H320     H      0.384510000000     0.950070000000     0.753000000000     0.0164297  
H321     H      0.342830000000     0.540570000000     0.722820000000     0.0538885  
H322     H      0.380400000000     0.997130000000     0.708390000000     0.0528977  
H323     H      0.009230000000     0.880630000000     0.707940000000     0.0972506  
H324     H      0.055000000000     0.883780000000     0.751330000000     0.0683224  
H325     H      0.534100000000     0.908590000000     0.800610000000     0.0555395  
H326     H      0.980790000000     0.848330000000     0.711570000000     0.0946129  
H327     H      0.460460000000     0.872120000000     0.761620000000     0.0202014  
H328     H      0.054630000000     0.853690000000     0.782910000000     0.0562947  
H329     H      0.505410000000     0.876330000000     0.805070000000     0.0687121  
H330     H      0.503550000000     0.633510000000     0.804550000000     0.0893055  
H331     H      0.051560000000     0.627060000000     0.762500000000     0.046261   
H332     H      0.034130000000     0.595620000000     0.715550000000     0.0494864  
H333     H      0.472890000000     0.661890000000     0.794380000000     0.0957637  
H334     H      0.456240000000     0.628630000000     0.749220000000     0.00876218 
H335     H      0.050300000000     0.653020000000     0.727570000000     0.0532038  
H336     H      0.003130000000     0.624660000000     0.707240000000     0.058951   
H337     H      0.868540000000     0.252490000000     0.452100000000     0.0955625  
H338     H      0.863890000000     0.209950000000     0.501290000000     0.0508054  
H339     H      0.904600000000     0.225070000000     0.038260000000     0.0486134  
H340     H      0.846260000000     0.289690000000     0.456510000000     0.0944047  
H341     H      0.881640000000     0.307880000000     0.000010000000     0.00424458 
H342     H      0.843580000000     0.224010000000     0.036420000000     0.0522449  
H343     H      0.884710000000     0.261910000000     0.048890000000     0.0459258  
H344     H      0.616870000000     0.262940000000     0.055830000000     0.0902856  
H345     H      0.618590000000     0.314190000000     0.015210000000     0.0498889  
H346     H      0.652970000000     0.303080000000     0.468850000000     0.0439212  
H347     H      0.595530000000     0.227900000000     0.042330000000     0.0901249  
H348     H      0.633440000000     0.217660000000     0.500270000000    -0.00534667 
H349     H      0.595090000000     0.310460000000     0.479160000000     0.0497377  
H350     H      0.630050000000     0.267530000000     0.458650000000     0.0427857  
H351     H      0.797600000000     0.383120000000     0.501570000000     0.0970328  
H352     H      0.757250000000     0.383360000000     0.051260000000     0.0559685  
H353     H      0.709370000000     0.415790000000     0.040270000000     0.04686    
H354     H      0.785380000000     0.361610000000     0.466300000000     0.0927856  
H355     H      0.744070000000     0.399970000000     0.455230000000    -0.00197037 
H356     H      0.722960000000     0.357300000000     0.047670000000     0.0523734  
H357     H      0.701010000000     0.392050000000     0.004860000000     0.0446454  
H358     H      0.777050000000     0.129660000000     0.002330000000     0.0919005  
H359     H      0.739500000000     0.135340000000     0.951440000000     0.0493057  
H360     H      0.687900000000     0.113710000000     0.467270000000     0.0435859  
H361     H      0.776100000000     0.161530000000     0.031710000000     0.0939921  
H362     H      0.720880000000     0.146250000000     0.546030000000     0.0142691  
H363     H      0.711930000000     0.168810000000     0.451460000000     0.050887   
H364     H      0.682560000000     0.145670000000     0.496480000000     0.0579691  
H365     H      0.728540000000     0.065730000000     0.381480000000     0.0869236  
H366     H      0.685270000000     0.019290000000     0.378170000000     0.046123   
H367     H      0.705750000000     0.472120000000     0.348730000000     0.0481354  
H368     H      0.760860000000     0.060190000000     0.409010000000     0.091883   
H369     H      0.781480000000     0.515370000000     0.377390000000     0.0115377  
H370     H      0.689820000000     0.485310000000     0.405250000000     0.0504291  
H371     H      0.737970000000     0.467670000000     0.376930000000     0.0578505  
H372     H      0.692520000000     0.511920000000     0.127510000000     0.0937511  
H373     H      0.737810000000     0.058640000000     0.123160000000     0.0675444  
H374     H      0.781170000000     0.041590000000     0.156840000000     0.0488791  
H375     H      0.697390000000     0.477680000000     0.100800000000     0.0884088  
H376     H      0.745000000000     0.460040000000     0.130250000000     0.000727604
H377     H      0.770510000000     0.050070000000     0.096960000000     0.0758127  
H378     H      0.789240000000     0.007340000000     0.131520000000     0.0469032  
H379     H      0.960660000000     0.264130000000     0.386250000000     0.105364   
H380     H      0.001080000000     0.212870000000     0.389460000000     0.0543633  
H381     H      0.547370000000     0.222900000000     0.355150000000     0.0441847  
H382     H      0.972390000000     0.300030000000     0.407430000000     0.114214   
H383     H      0.516540000000     0.308780000000     0.371370000000    -0.00184111 
H384     H      0.535620000000     0.218630000000     0.414400000000     0.0484148  
H385     H      0.556950000000     0.259330000000     0.377170000000     0.0429314  
H386     H      0.957670000000     0.266970000000     0.134390000000     0.0923345  
H387     H      0.003220000000     0.311590000000     0.134500000000     0.0527422  
H388     H      0.551370000000     0.288280000000     0.158230000000     0.0493139  
H389     H      0.959090000000     0.236580000000     0.103410000000     0.0890681  
H390     H      0.507480000000     0.213660000000     0.126690000000     0.00213585 
H391     H      0.533130000000     0.308190000000     0.103590000000     0.0495024  
H392     H      0.553180000000     0.257610000000     0.127350000000     0.0472926  
H393     H      0.626000000000     0.000160000000     0.206310000000     0.0988007  
H394     H      0.625080000000     0.053800000000     0.243100000000     0.0502357  
H395     H      0.591580000000     0.544400000000     0.290360000000     0.043635   
H396     H      0.650270000000     0.967120000000     0.219790000000     0.111254   
H397     H      0.616160000000     0.458360000000     0.266070000000    -0.00268132 
H398     H      0.649750000000     0.052990000000     0.278540000000     0.048802   
H399     H      0.616370000000     0.511080000000     0.303130000000     0.0432109  
H400     H      0.855860000000     0.994330000000     0.303870000000     0.109405   
H401     H      0.862710000000     0.046720000000     0.260720000000     0.0716235  
H402     H      0.900960000000     0.034490000000     0.217550000000     0.0549892  
H403     H      0.839370000000     0.458750000000     0.285880000000     0.0971223  
H404     H      0.884510000000     0.450070000000     0.253000000000     0.0164184  
H405     H      0.842830000000     0.040570000000     0.222810000000     0.0538425  
H406     H      0.880400000000     0.497130000000     0.208390000000     0.0527891  
H407     H      0.509230000000     0.380640000000     0.207930000000     0.0973341  
H408     H      0.555000000000     0.383780000000     0.251330000000     0.068338   
H409     H      0.034100000000     0.408590000000     0.300610000000     0.0555344  
H410     H      0.480790000000     0.348330000000     0.211570000000     0.0945929  
H411     H      0.960460000000     0.372110000000     0.261620000000     0.0202301  
H412     H      0.554630000000     0.353690000000     0.282910000000     0.056297   
H413     H      0.005410000000     0.376330000000     0.305070000000     0.0687037  
H414     H      0.003550000000     0.133510000000     0.304550000000     0.0891538  
H415     H      0.551560000000     0.127060000000     0.262500000000     0.0462822  
H416     H      0.534130000000     0.095620000000     0.215550000000     0.0494599  
H417     H      0.972890000000     0.161890000000     0.294380000000     0.0957327  
H418     H      0.956240000000     0.128630000000     0.249220000000     0.00879366 
H419     H      0.550300000000     0.153010000000     0.227570000000     0.0532085  
H420     H      0.503130000000     0.124660000000     0.207240000000     0.0589369  
H421     H      0.868540000000     0.252490000000     0.952100000000     0.0955882  
H422     H      0.863890000000     0.209950000000     0.001290000000     0.0507883  
H423     H      0.904600000000     0.225070000000     0.538260000000     0.0486212  
H424     H      0.846260000000     0.289690000000     0.956510000000     0.0944248  
H425     H      0.881640000000     0.307880000000     0.500010000000     0.00435611 
H426     H      0.843580000000     0.224010000000     0.536420000000     0.0522389  
H427     H      0.884710000000     0.261910000000     0.548890000000     0.045935   
H428     H      0.616870000000     0.262940000000     0.555830000000     0.0902877  
H429     H      0.618590000000     0.314190000000     0.515210000000     0.0499915  
H430     H      0.652970000000     0.303080000000     0.968850000000     0.0439432  
H431     H      0.595530000000     0.227900000000     0.542330000000     0.0901303  
H432     H      0.633440000000     0.217660000000     0.000270000000    -0.00537802 
H433     H      0.595090000000     0.310460000000     0.979160000000     0.0497287  
H434     H      0.630050000000     0.267530000000     0.958650000000     0.0428024  
H435     H      0.797600000000     0.383120000000     0.001570000000     0.096935   
H436     H      0.757250000000     0.383360000000     0.551260000000     0.0559822  
H437     H      0.709370000000     0.415790000000     0.540270000000     0.0468554  
H438     H      0.785380000000     0.361610000000     0.966300000000     0.0927708  
H439     H      0.744070000000     0.399970000000     0.955230000000    -0.00195895 
H440     H      0.722960000000     0.357300000000     0.547670000000     0.0523853  
H441     H      0.701010000000     0.392050000000     0.504860000000     0.044667   
H442     H      0.777050000000     0.129660000000     0.502330000000     0.0919019  
H443     H      0.739500000000     0.135340000000     0.451440000000     0.0492845  
H444     H      0.687900000000     0.113710000000     0.967270000000     0.0435954  
H445     H      0.776100000000     0.161530000000     0.531720000000     0.093962   
H446     H      0.720880000000     0.146250000000     0.046030000000     0.0142486  
H447     H      0.711930000000     0.168810000000     0.951460000000     0.0508951  
H448     H      0.682560000000     0.145670000000     0.996480000000     0.0579956  
H449     H      0.728540000000     0.065730000000     0.881480000000     0.0869282  
H450     H      0.685270000000     0.019290000000     0.878170000000     0.0461286  
H451     H      0.705750000000     0.472120000000     0.848730000000     0.0481374  
H452     H      0.760860000000     0.060190000000     0.909010000000     0.0918946  
H453     H      0.781480000000     0.515370000000     0.877390000000     0.0115432  
H454     H      0.689820000000     0.485310000000     0.905250000000     0.0504409  
H455     H      0.737970000000     0.467670000000     0.876930000000     0.0578547  
H456     H      0.692520000000     0.511920000000     0.627510000000     0.0937482  
H457     H      0.737810000000     0.058640000000     0.623160000000     0.0675408  
H458     H      0.781170000000     0.041590000000     0.656840000000     0.0488802  
H459     H      0.697390000000     0.477680000000     0.600800000000     0.0884042  
H460     H      0.745000000000     0.460040000000     0.630250000000     0.000728832
H461     H      0.770510000000     0.050070000000     0.596960000000     0.0758072  
H462     H      0.789240000000     0.007340000000     0.631520000000     0.0469057  
H463     H      0.960660000000     0.264130000000     0.886250000000     0.105369   
H464     H      0.001080000000     0.212870000000     0.889460000000     0.054371   
H465     H      0.547370000000     0.222900000000     0.855150000000     0.0441874  
H466     H      0.972390000000     0.300030000000     0.907430000000     0.114224   
H467     H      0.516540000000     0.308780000000     0.871370000000    -0.00183593 
H468     H      0.535620000000     0.218630000000     0.914400000000     0.0484286  
H469     H      0.556950000000     0.259330000000     0.877170000000     0.0429362  
H470     H      0.957670000000     0.266970000000     0.634390000000     0.0923236  
H471     H      0.003220000000     0.311590000000     0.634500000000     0.0527428  
H472     H      0.551370000000     0.288280000000     0.658230000000     0.0493141  
H473     H      0.959090000000     0.236580000000     0.603400000000     0.0890403  
H474     H      0.507480000000     0.213660000000     0.626690000000     0.00214096 
H475     H      0.533130000000     0.308190000000     0.603590000000     0.049504   
H476     H      0.553180000000     0.257610000000     0.627350000000     0.0472927  
H477     H      0.626000000000     0.000160000000     0.706310000000     0.0988011  
H478     H      0.625080000000     0.053800000000     0.743100000000     0.0502356  
H479     H      0.591580000000     0.544400000000     0.790360000000     0.0436373  
H480     H      0.650270000000     0.967120000000     0.719790000000     0.111254   
H481     H      0.616160000000     0.458360000000     0.766070000000    -0.00268061 
H482     H      0.649750000000     0.052990000000     0.778540000000     0.0488025  
H483     H      0.616370000000     0.511080000000     0.803130000000     0.0432139  
H484     H      0.855860000000     0.994330000000     0.803870000000     0.109409   
H485     H      0.862710000000     0.046720000000     0.760720000000     0.0716323  
H486     H      0.900960000000     0.034490000000     0.717550000000     0.0549868  
H487     H      0.839370000000     0.458750000000     0.785880000000     0.0971235  
H488     H      0.884510000000     0.450070000000     0.753000000000     0.0164182  
H489     H      0.842830000000     0.040570000000     0.722820000000     0.0538612  
H490     H      0.880400000000     0.497130000000     0.708390000000     0.0527873  
H491     H      0.509230000000     0.380640000000     0.707940000000     0.0973702  
H492     H      0.555000000000     0.383780000000     0.751330000000     0.0683371  
H493     H      0.034100000000     0.408590000000     0.800610000000     0.0555372  
H494     H      0.480790000000     0.348330000000     0.711570000000     0.0946131  
H495     H      0.960460000000     0.372110000000     0.761620000000     0.0202273  
H496     H      0.554630000000     0.353690000000     0.782910000000     0.0562986  
H497     H      0.005410000000     0.376330000000     0.805070000000     0.0687064  
H498     H      0.003550000000     0.133510000000     0.804550000000     0.0891573  
H499     H      0.551560000000     0.127060000000     0.762500000000     0.0462829  
H500     H      0.534130000000     0.095620000000     0.715550000000     0.0494606  
H501     H      0.972890000000     0.161890000000     0.794380000000     0.0957346  
H502     H      0.956240000000     0.128630000000     0.749220000000     0.00879364 
H503     H      0.550300000000     0.153010000000     0.727570000000     0.0532084  
H504     H      0.503130000000     0.124660000000     0.707240000000     0.0589376  
H505     H      0.868540000000     0.752490000000     0.452100000000     0.0955631  
H506     H      0.863890000000     0.709950000000     0.501290000000     0.0508066  
H507     H      0.904600000000     0.725070000000     0.038260000000     0.0486145  
H508     H      0.846260000000     0.789690000000     0.456510000000     0.094406   
H509     H      0.881640000000     0.807880000000     0.000010000000     0.00424775 
H510     H      0.843580000000     0.724010000000     0.036420000000     0.0522452  
H511     H      0.884710000000     0.761910000000     0.048890000000     0.0459267  
H512     H      0.616870000000     0.762940000000     0.055830000000     0.0903022  
H513     H      0.618590000000     0.814190000000     0.015210000000     0.0498953  
H514     H      0.652970000000     0.803080000000     0.468850000000     0.0439228  
H515     H      0.595530000000     0.727900000000     0.042330000000     0.0901306  
H516     H      0.633440000000     0.717660000000     0.500270000000    -0.00538686 
H517     H      0.595090000000     0.810460000000     0.479160000000     0.0497416  
H518     H      0.630050000000     0.767530000000     0.458650000000     0.0427829  
H519     H      0.797600000000     0.883120000000     0.501570000000     0.0970395  
H520     H      0.757250000000     0.883360000000     0.051260000000     0.0559737  
H521     H      0.709370000000     0.915800000000     0.040270000000     0.0468799  
H522     H      0.785380000000     0.861610000000     0.466300000000     0.0927886  
H523     H      0.744070000000     0.899980000000     0.455230000000    -0.00196763 
H524     H      0.722960000000     0.857300000000     0.047670000000     0.0523788  
H525     H      0.701010000000     0.892050000000     0.004860000000     0.0446547  
H526     H      0.777050000000     0.629660000000     0.002330000000     0.0918944  
H527     H      0.739500000000     0.635340000000     0.951440000000     0.0493093  
H528     H      0.687900000000     0.613710000000     0.467270000000     0.043587   
H529     H      0.776100000000     0.661530000000     0.031710000000     0.0939805  
H530     H      0.720880000000     0.646250000000     0.546030000000     0.0142887  
H531     H      0.711930000000     0.668810000000     0.451460000000     0.0508913  
H532     H      0.682560000000     0.645670000000     0.496480000000     0.0579653  
H533     H      0.728540000000     0.565730000000     0.381480000000     0.0869202  
H534     H      0.685270000000     0.519290000000     0.378170000000     0.0460906  
H535     H      0.705750000000     0.972120000000     0.348730000000     0.0481153  
H536     H      0.760860000000     0.560190000000     0.409010000000     0.0918833  
H537     H      0.781480000000     0.015370000000     0.377390000000     0.0115106  
H538     H      0.689820000000     0.985310000000     0.405250000000     0.0505531  
H539     H      0.737970000000     0.967670000000     0.376930000000     0.0578321  
H540     H      0.692520000000     0.011920000000     0.127510000000     0.093651   
H541     H      0.737810000000     0.558640000000     0.123160000000     0.0675503  
H542     H      0.781170000000     0.541600000000     0.156840000000     0.0488683  
H543     H      0.697390000000     0.977680000000     0.100800000000     0.0883966  
H544     H      0.745000000000     0.960040000000     0.130250000000     0.000745636
H545     H      0.770510000000     0.550070000000     0.096960000000     0.0758247  
H546     H      0.789240000000     0.507330000000     0.131520000000     0.0469199  
H547     H      0.960660000000     0.764130000000     0.386250000000     0.105366   
H548     H      0.001080000000     0.712870000000     0.389460000000     0.054371   
H549     H      0.547370000000     0.722900000000     0.355150000000     0.0441663  
H550     H      0.972390000000     0.800030000000     0.407430000000     0.114217   
H551     H      0.516540000000     0.808780000000     0.371370000000    -0.00184122 
H552     H      0.535620000000     0.718630000000     0.414400000000     0.0484209  
H553     H      0.556950000000     0.759330000000     0.377170000000     0.0429129  
H554     H      0.957670000000     0.766960000000     0.134390000000     0.0923661  
H555     H      0.003220000000     0.811590000000     0.134500000000     0.0527118  
H556     H      0.551370000000     0.788270000000     0.158230000000     0.0493363  
H557     H      0.959090000000     0.736580000000     0.103410000000     0.0890796  
H558     H      0.507480000000     0.713660000000     0.126690000000     0.00213325 
H559     H      0.533130000000     0.808190000000     0.103590000000     0.0494717  
H560     H      0.553180000000     0.757610000000     0.127350000000     0.047305   
H561     H      0.626000000000     0.500160000000     0.206310000000     0.0989011  
H562     H      0.625080000000     0.553800000000     0.243100000000     0.0502364  
H563     H      0.591580000000     0.044400000000     0.290360000000     0.0436407  
H564     H      0.650270000000     0.467120000000     0.219790000000     0.111277   
H565     H      0.616160000000     0.958360000000     0.266070000000    -0.00275417 
H566     H      0.649750000000     0.553000000000     0.278540000000     0.0487924  
H567     H      0.616370000000     0.011080000000     0.303130000000     0.0432019  
H568     H      0.855860000000     0.494330000000     0.303870000000     0.109383   
H569     H      0.862710000000     0.546710000000     0.260720000000     0.0716656  
H570     H      0.900960000000     0.534490000000     0.217550000000     0.0549611  
H571     H      0.839370000000     0.958750000000     0.285880000000     0.0971196  
H572     H      0.884510000000     0.950070000000     0.253000000000     0.0164294  
H573     H      0.842830000000     0.540570000000     0.222810000000     0.053874   
H574     H      0.880400000000     0.997130000000     0.208390000000     0.0529087  
H575     H      0.509230000000     0.880630000000     0.207930000000     0.0973575  
H576     H      0.555000000000     0.883780000000     0.251330000000     0.0683424  
H577     H      0.034100000000     0.908590000000     0.300610000000     0.0555453  
H578     H      0.480790000000     0.848330000000     0.211570000000     0.0946066  
H579     H      0.960460000000     0.872120000000     0.261620000000     0.0201978  
H580     H      0.554630000000     0.853690000000     0.282910000000     0.0562981  
H581     H      0.005410000000     0.876330000000     0.305070000000     0.0687073  
H582     H      0.003550000000     0.633510000000     0.304550000000     0.0891553  
H583     H      0.551560000000     0.627060000000     0.262500000000     0.0462792  
H584     H      0.534130000000     0.595620000000     0.215550000000     0.0494751  
H585     H      0.972890000000     0.661890000000     0.294380000000     0.095735   
H586     H      0.956240000000     0.628630000000     0.249220000000     0.00880055 
H587     H      0.550300000000     0.653020000000     0.227570000000     0.0532091  
H588     H      0.503130000000     0.624660000000     0.207240000000     0.0589446  
H589     H      0.868540000000     0.752490000000     0.952100000000     0.0955888  
H590     H      0.863890000000     0.709950000000     0.001290000000     0.0507895  
H591     H      0.904600000000     0.725070000000     0.538260000000     0.0486224  
H592     H      0.846260000000     0.789690000000     0.956510000000     0.0944261  
H593     H      0.881640000000     0.807880000000     0.500010000000     0.00435928 
H594     H      0.843580000000     0.724010000000     0.536420000000     0.0522391  
H595     H      0.884710000000     0.761910000000     0.548890000000     0.0459359  
H596     H      0.616870000000     0.762940000000     0.555830000000     0.0903043  
H597     H      0.618590000000     0.814190000000     0.515210000000     0.0499979  
H598     H      0.652970000000     0.803080000000     0.968850000000     0.0439448  
H599     H      0.595530000000     0.727900000000     0.542330000000     0.090136   
H600     H      0.633440000000     0.717660000000     0.000270000000    -0.00541821 
H601     H      0.595090000000     0.810460000000     0.979160000000     0.0497326  
H602     H      0.630050000000     0.767530000000     0.958650000000     0.0427995  
H603     H      0.797600000000     0.883120000000     0.001570000000     0.0969418  
H604     H      0.757250000000     0.883360000000     0.551260000000     0.0559875  
H605     H      0.709370000000     0.915800000000     0.540270000000     0.0468753  
H606     H      0.785380000000     0.861610000000     0.966300000000     0.0927738  
H607     H      0.744070000000     0.899980000000     0.955230000000    -0.0019562  
H608     H      0.722960000000     0.857300000000     0.547670000000     0.0523907  
H609     H      0.701010000000     0.892050000000     0.504860000000     0.0446763  
H610     H      0.777050000000     0.629660000000     0.502330000000     0.0918958  
H611     H      0.739500000000     0.635340000000     0.451440000000     0.0492881  
H612     H      0.687900000000     0.613710000000     0.967270000000     0.0435965  
H613     H      0.776100000000     0.661530000000     0.531720000000     0.0939504  
H614     H      0.720880000000     0.646250000000     0.046030000000     0.0142682  
H615     H      0.711930000000     0.668810000000     0.951460000000     0.0508993  
H616     H      0.682560000000     0.645670000000     0.996480000000     0.0579918  
H617     H      0.728540000000     0.565730000000     0.881480000000     0.0869247  
H618     H      0.685270000000     0.519290000000     0.878170000000     0.0460962  
H619     H      0.705750000000     0.972120000000     0.848730000000     0.0481173  
H620     H      0.760860000000     0.560190000000     0.909010000000     0.0918949  
H621     H      0.781480000000     0.015370000000     0.877390000000     0.0115161  
H622     H      0.689820000000     0.985310000000     0.905250000000     0.0505649  
H623     H      0.737970000000     0.967670000000     0.876930000000     0.0578363  
H624     H      0.692520000000     0.011920000000     0.627510000000     0.0936481  
H625     H      0.737810000000     0.558640000000     0.623160000000     0.0675467  
H626     H      0.781170000000     0.541600000000     0.656840000000     0.0488693  
H627     H      0.697390000000     0.977680000000     0.600800000000     0.088392   
H628     H      0.745000000000     0.960040000000     0.630250000000     0.000746864
H629     H      0.770510000000     0.550070000000     0.596960000000     0.0758193  
H630     H      0.789240000000     0.507330000000     0.631520000000     0.0469225  
H631     H      0.960660000000     0.764130000000     0.886250000000     0.105371   
H632     H      0.001080000000     0.712870000000     0.889460000000     0.0543788  
H633     H      0.547370000000     0.722900000000     0.855150000000     0.0441689  
H634     H      0.972390000000     0.800030000000     0.907430000000     0.114227   
H635     H      0.516540000000     0.808780000000     0.871370000000    -0.00183603 
H636     H      0.535620000000     0.718630000000     0.914400000000     0.0484347  
H637     H      0.556950000000     0.759330000000     0.877170000000     0.0429176  
H638     H      0.957670000000     0.766960000000     0.634390000000     0.0923551  
H639     H      0.003220000000     0.811590000000     0.634500000000     0.0527124  
H640     H      0.551370000000     0.788270000000     0.658230000000     0.0493365  
H641     H      0.959090000000     0.736580000000     0.603400000000     0.0890518  
H642     H      0.507480000000     0.713660000000     0.626690000000     0.00213837 
H643     H      0.533130000000     0.808190000000     0.603590000000     0.0494733  
H644     H      0.553180000000     0.757610000000     0.627350000000     0.0473052  
H645     H      0.626000000000     0.500160000000     0.706310000000     0.0989014  
H646     H      0.625080000000     0.553800000000     0.743100000000     0.0502362  
H647     H      0.591580000000     0.044400000000     0.790360000000     0.043643   
H648     H      0.650270000000     0.467120000000     0.719790000000     0.111277   
H649     H      0.616160000000     0.958360000000     0.766070000000    -0.00275346 
H650     H      0.649750000000     0.553000000000     0.778540000000     0.0487929  
H651     H      0.616370000000     0.011080000000     0.803130000000     0.0432049  
H652     H      0.855860000000     0.494330000000     0.803870000000     0.109386   
H653     H      0.862710000000     0.546710000000     0.760720000000     0.0716743  
H654     H      0.900960000000     0.534490000000     0.717550000000     0.0549587  
H655     H      0.839370000000     0.958750000000     0.785880000000     0.0971208  
H656     H      0.884510000000     0.950070000000     0.753000000000     0.0164293  
H657     H      0.842830000000     0.540570000000     0.722820000000     0.0538928  
H658     H      0.880400000000     0.997130000000     0.708390000000     0.052907   
H659     H      0.509230000000     0.880630000000     0.707940000000     0.0973937  
H660     H      0.555000000000     0.883780000000     0.751330000000     0.0683415  
H661     H      0.034100000000     0.908590000000     0.800610000000     0.0555481  
H662     H      0.480790000000     0.848330000000     0.711570000000     0.0946268  
H663     H      0.960460000000     0.872120000000     0.761620000000     0.0201949  
H664     H      0.554630000000     0.853690000000     0.782910000000     0.0562998  
H665     H      0.005410000000     0.876330000000     0.805070000000     0.06871    
H666     H      0.003550000000     0.633510000000     0.804550000000     0.0891587  
H667     H      0.551560000000     0.627060000000     0.762500000000     0.04628    
H668     H      0.534130000000     0.595620000000     0.715550000000     0.0494757  
H669     H      0.972890000000     0.661890000000     0.794380000000     0.0957369  
H670     H      0.956240000000     0.628630000000     0.749220000000     0.00880053 
H671     H      0.550300000000     0.653020000000     0.727570000000     0.053209   
H672     H      0.503130000000     0.624660000000     0.707240000000     0.0589453  
N1       N      0.407320000000     0.263880000000     0.003840000000    -0.199382   
N2       N      0.342190000000     0.255500000000     0.995170000000    -0.157656   
N3       N      0.157240000000     0.262650000000     0.001100000000    -0.200136   
N4       N      0.092360000000     0.270500000000     0.012410000000    -0.158774   
N5       N      0.241140000000     0.422620000000     0.500500000000    -0.197786   
N6       N      0.255480000000     0.356580000000     0.507960000000    -0.156974   
N7       N      0.216530000000     0.110440000000     0.009890000000    -0.199048   
N8       N      0.245500000000     0.167680000000     0.490450000000    -0.156483   
N9       N      0.241880000000     0.009080000000     0.347040000000    -0.198692   
N10      N      0.224380000000     0.023480000000     0.409710000000    -0.158796   
N11      N      0.248200000000     0.001780000000     0.159790000000    -0.201194   
N12      N      0.232160000000     0.015490000000     0.096650000000    -0.156022   
N13      N      0.015920000000     0.263290000000     0.348180000000    -0.199143   
N14      N      0.002110000000     0.257890000000     0.413840000000    -0.154648   
N15      N      0.015720000000     0.250820000000     0.160580000000    -0.198625   
N16      N      0.994920000000     0.273790000000     0.101200000000    -0.157231   
N17      N      0.088890000000     0.501060000000     0.261770000000    -0.200678   
N18      N      0.152730000000     0.511220000000     0.247690000000    -0.155801   
N19      N      0.404060000000     0.997050000000     0.253210000000    -0.1923     
N20      N      0.337810000000     0.502220000000     0.257440000000    -0.153567   
N21      N      0.495890000000     0.408030000000     0.266220000000    -0.194064   
N22      N      0.518780000000     0.348580000000     0.246320000000    -0.155303   
N23      N      0.495160000000     0.096500000000     0.249010000000    -0.198299   
N24      N      0.513130000000     0.160070000000     0.262350000000    -0.156802   
N25      N      0.407320000000     0.263880000000     0.503840000000    -0.199315   
N26      N      0.342190000000     0.255500000000     0.495170000000    -0.157704   
N27      N      0.157240000000     0.262650000000     0.501100000000    -0.20011    
N28      N      0.092360000000     0.270500000000     0.512410000000    -0.158712   
N29      N      0.241140000000     0.422620000000     0.000500000000    -0.197807   
N30      N      0.255480000000     0.356580000000     0.007970000000    -0.15702    
N31      N      0.216530000000     0.110440000000     0.509890000000    -0.198995   
N32      N      0.245500000000     0.167680000000     0.990450000000    -0.156437   
N33      N      0.241880000000     0.009080000000     0.847040000000    -0.198692   
N34      N      0.224380000000     0.023480000000     0.909710000000    -0.158788   
N35      N      0.248200000000     0.001780000000     0.659790000000    -0.201193   
N36      N      0.232160000000     0.015490000000     0.596650000000    -0.156097   
N37      N      0.015920000000     0.263290000000     0.848180000000    -0.199143   
N38      N      0.002110000000     0.257890000000     0.913840000000    -0.15464    
N39      N      0.015720000000     0.250820000000     0.660580000000    -0.198624   
N40      N      0.994920000000     0.273790000000     0.601200000000    -0.157242   
N41      N      0.088890000000     0.501060000000     0.761770000000    -0.200678   
N42      N      0.152730000000     0.511220000000     0.747690000000    -0.155801   
N43      N      0.404060000000     0.997050000000     0.753210000000    -0.192301   
N44      N      0.337810000000     0.502220000000     0.757440000000    -0.153562   
N45      N      0.495890000000     0.408030000000     0.766220000000    -0.194068   
N46      N      0.518780000000     0.348580000000     0.746320000000    -0.155295   
N47      N      0.495160000000     0.096500000000     0.749010000000    -0.198299   
N48      N      0.513130000000     0.160070000000     0.762350000000    -0.156802   
N49      N      0.407320000000     0.763880000000     0.003840000000    -0.199382   
N50      N      0.342190000000     0.755500000000     0.995170000000    -0.157656   
N51      N      0.157240000000     0.762650000000     0.001100000000    -0.200156   
N52      N      0.092360000000     0.770500000000     0.012410000000    -0.158769   
N53      N      0.241140000000     0.922630000000     0.500500000000    -0.197838   
N54      N      0.255480000000     0.856580000000     0.507960000000    -0.156975   
N55      N      0.216530000000     0.610440000000     0.009890000000    -0.199025   
N56      N      0.245500000000     0.667680000000     0.490450000000    -0.15642    
N57      N      0.241880000000     0.509080000000     0.347040000000    -0.198648   
N58      N      0.224380000000     0.523480000000     0.409710000000    -0.158819   
N59      N      0.248200000000     0.501780000000     0.159790000000    -0.201177   
N60      N      0.232160000000     0.515490000000     0.096650000000    -0.15596    
N61      N      0.015920000000     0.763290000000     0.348180000000    -0.199166   
N62      N      0.002110000000     0.757890000000     0.413840000000    -0.154644   
N63      N      0.015720000000     0.750820000000     0.160580000000    -0.19862    
N64      N      0.994920000000     0.773790000000     0.101200000000    -0.157235   
N65      N      0.088890000000     0.001050000000     0.261770000000    -0.2007     
N66      N      0.152730000000     0.011220000000     0.247690000000    -0.155837   
N67      N      0.404060000000     0.497050000000     0.253210000000    -0.192355   
N68      N      0.337810000000     0.002220000000     0.257440000000    -0.153616   
N69      N      0.495890000000     0.908030000000     0.266220000000    -0.194064   
N70      N      0.518780000000     0.848580000000     0.246320000000    -0.155296   
N71      N      0.495160000000     0.596490000000     0.249010000000    -0.198349   
N72      N      0.513130000000     0.660070000000     0.262350000000    -0.156808   
N73      N      0.407320000000     0.763880000000     0.503840000000    -0.199315   
N74      N      0.342190000000     0.755500000000     0.495170000000    -0.157704   
N75      N      0.157240000000     0.762650000000     0.501100000000    -0.200131   
N76      N      0.092360000000     0.770500000000     0.512410000000    -0.158707   
N77      N      0.241140000000     0.922630000000     0.000500000000    -0.197859   
N78      N      0.255480000000     0.856580000000     0.007970000000    -0.157021   
N79      N      0.216530000000     0.610440000000     0.509890000000    -0.198973   
N80      N      0.245500000000     0.667680000000     0.990450000000    -0.156373   
N81      N      0.241880000000     0.509080000000     0.847040000000    -0.198648   
N82      N      0.224380000000     0.523480000000     0.909710000000    -0.15881    
N83      N      0.248200000000     0.501780000000     0.659790000000    -0.201176   
N84      N      0.232160000000     0.515490000000     0.596650000000    -0.156035   
N85      N      0.015920000000     0.763290000000     0.848180000000    -0.199166   
N86      N      0.002110000000     0.757890000000     0.913840000000    -0.154636   
N87      N      0.015720000000     0.750820000000     0.660580000000    -0.198619   
N88      N      0.994920000000     0.773790000000     0.601200000000    -0.157246   
N89      N      0.088890000000     0.001050000000     0.761770000000    -0.2007     
N90      N      0.152730000000     0.011220000000     0.747690000000    -0.155837   
N91      N      0.404060000000     0.497050000000     0.753210000000    -0.192357   
N92      N      0.337810000000     0.002220000000     0.757440000000    -0.153611   
N93      N      0.495890000000     0.908030000000     0.766220000000    -0.194067   
N94      N      0.518780000000     0.848580000000     0.746320000000    -0.155288   
N95      N      0.495160000000     0.596490000000     0.749010000000    -0.198349   
N96      N      0.513130000000     0.660070000000     0.762350000000    -0.156808   
N97      N      0.907320000000     0.263880000000     0.003840000000    -0.199371   
N98      N      0.842190000000     0.255500000000     0.995170000000    -0.157655   
N99      N      0.657240000000     0.262650000000     0.001100000000    -0.200136   
N100     N      0.592360000000     0.270500000000     0.012410000000    -0.15877    
N101     N      0.741140000000     0.422620000000     0.500500000000    -0.197732   
N102     N      0.755480000000     0.356580000000     0.507960000000    -0.156975   
N103     N      0.716530000000     0.110440000000     0.009890000000    -0.199048   
N104     N      0.745500000000     0.167680000000     0.490450000000    -0.156482   
N105     N      0.741880000000     0.009080000000     0.347040000000    -0.198701   
N106     N      0.724380000000     0.023480000000     0.409710000000    -0.158796   
N107     N      0.748200000000     0.001780000000     0.159790000000    -0.201193   
N108     N      0.732160000000     0.015490000000     0.096650000000    -0.156027   
N109     N      0.515920000000     0.263290000000     0.348180000000    -0.199078   
N110     N      0.502110000000     0.257890000000     0.413840000000    -0.154629   
N111     N      0.515720000000     0.250820000000     0.160580000000    -0.198556   
N112     N      0.494920000000     0.273790000000     0.101200000000    -0.157347   
N113     N      0.588890000000     0.501060000000     0.261770000000    -0.200665   
N114     N      0.652730000000     0.511220000000     0.247690000000    -0.155802   
N115     N      0.904060000000     0.997050000000     0.253210000000    -0.192302   
N116     N      0.837810000000     0.502220000000     0.257440000000    -0.153567   
N117     N      0.995890000000     0.408030000000     0.266220000000    -0.194003   
N118     N      0.018780000000     0.348580000000     0.246320000000    -0.155372   
N119     N      0.995160000000     0.096500000000     0.249010000000    -0.198219   
N120     N      0.013130000000     0.160070000000     0.262350000000    -0.156871   
N121     N      0.907320000000     0.263880000000     0.503840000000    -0.199304   
N122     N      0.842190000000     0.255500000000     0.495170000000    -0.157703   
N123     N      0.657240000000     0.262650000000     0.501100000000    -0.20011    
N124     N      0.592360000000     0.270500000000     0.512410000000    -0.158708   
N125     N      0.741140000000     0.422620000000     0.000500000000    -0.197754   
N126     N      0.755480000000     0.356580000000     0.007970000000    -0.15702    
N127     N      0.716530000000     0.110440000000     0.509890000000    -0.198995   
N128     N      0.745500000000     0.167680000000     0.990450000000    -0.156436   
N129     N      0.741880000000     0.009080000000     0.847040000000    -0.198701   
N130     N      0.724380000000     0.023480000000     0.909710000000    -0.158787   
N131     N      0.748200000000     0.001780000000     0.659790000000    -0.201191   
N132     N      0.732160000000     0.015490000000     0.596650000000    -0.156102   
N133     N      0.515920000000     0.263290000000     0.848180000000    -0.199078   
N134     N      0.502110000000     0.257890000000     0.913840000000    -0.154621   
N135     N      0.515720000000     0.250820000000     0.660580000000    -0.198555   
N136     N      0.494920000000     0.273790000000     0.601200000000    -0.157357   
N137     N      0.588890000000     0.501060000000     0.761770000000    -0.200665   
N138     N      0.652730000000     0.511220000000     0.747690000000    -0.155802   
N139     N      0.904060000000     0.997050000000     0.753210000000    -0.192303   
N140     N      0.837810000000     0.502220000000     0.757440000000    -0.153561   
N141     N      0.995890000000     0.408030000000     0.766220000000    -0.194006   
N142     N      0.018780000000     0.348580000000     0.746320000000    -0.155364   
N143     N      0.995160000000     0.096500000000     0.749010000000    -0.198219   
N144     N      0.013130000000     0.160070000000     0.762350000000    -0.156871   
N145     N      0.907320000000     0.763880000000     0.003840000000    -0.199371   
N146     N      0.842190000000     0.755500000000     0.995170000000    -0.157655   
N147     N      0.657240000000     0.762650000000     0.001100000000    -0.200156   
N148     N      0.592360000000     0.770500000000     0.012410000000    -0.158765   
N149     N      0.741140000000     0.922630000000     0.500500000000    -0.197784   
N150     N      0.755480000000     0.856580000000     0.507960000000    -0.156976   
N151     N      0.716530000000     0.610440000000     0.009890000000    -0.199025   
N152     N      0.745500000000     0.667680000000     0.490450000000    -0.156419   
N153     N      0.741880000000     0.509080000000     0.347040000000    -0.198656   
N154     N      0.724380000000     0.523480000000     0.409710000000    -0.158819   
N155     N      0.748200000000     0.501780000000     0.159790000000    -0.201176   
N156     N      0.732160000000     0.515490000000     0.096650000000    -0.155965   
N157     N      0.515920000000     0.763290000000     0.348180000000    -0.199101   
N158     N      0.502110000000     0.757890000000     0.413840000000    -0.154626   
N159     N      0.515720000000     0.750820000000     0.160580000000    -0.198551   
N160     N      0.494920000000     0.773790000000     0.101200000000    -0.15735    
N161     N      0.588890000000     0.001050000000     0.261770000000    -0.200687   
N162     N      0.652730000000     0.011220000000     0.247690000000    -0.155838   
N163     N      0.904060000000     0.497050000000     0.253210000000    -0.192357   
N164     N      0.837810000000     0.002220000000     0.257440000000    -0.153616   
N165     N      0.995890000000     0.908030000000     0.266220000000    -0.194002   
N166     N      0.018780000000     0.848580000000     0.246320000000    -0.155365   
N167     N      0.995160000000     0.596490000000     0.249010000000    -0.198269   
N168     N      0.013130000000     0.660070000000     0.262350000000    -0.156877   
N169     N      0.907320000000     0.763880000000     0.503840000000    -0.199304   
N170     N      0.842190000000     0.755500000000     0.495170000000    -0.157703   
N171     N      0.657240000000     0.762650000000     0.501100000000    -0.200131   
N172     N      0.592360000000     0.770500000000     0.512410000000    -0.158703   
N173     N      0.741140000000     0.922630000000     0.000500000000    -0.197806   
N174     N      0.755480000000     0.856580000000     0.007970000000    -0.157021   
N175     N      0.716530000000     0.610440000000     0.509890000000    -0.198972   
N176     N      0.745500000000     0.667680000000     0.990450000000    -0.156372   
N177     N      0.741880000000     0.509080000000     0.847040000000    -0.198656   
N178     N      0.724380000000     0.523480000000     0.909710000000    -0.15881    
N179     N      0.748200000000     0.501780000000     0.659790000000    -0.201175   
N180     N      0.732160000000     0.515490000000     0.596650000000    -0.15604    
N181     N      0.515920000000     0.763290000000     0.848180000000    -0.199101   
N182     N      0.502110000000     0.757890000000     0.913840000000    -0.154617   
N183     N      0.515720000000     0.750820000000     0.660580000000    -0.19855    
N184     N      0.494920000000     0.773790000000     0.601200000000    -0.157361   
N185     N      0.588890000000     0.001050000000     0.761770000000    -0.200687   
N186     N      0.652730000000     0.011220000000     0.747690000000    -0.155838   
N187     N      0.904060000000     0.497050000000     0.753210000000    -0.192358   
N188     N      0.837810000000     0.002220000000     0.757440000000    -0.15361    
N189     N      0.995890000000     0.908030000000     0.766220000000    -0.194006   
N190     N      0.018780000000     0.848580000000     0.746320000000    -0.155357   
N191     N      0.995160000000     0.596490000000     0.749010000000    -0.198269   
N192     N      0.013130000000     0.660070000000     0.762350000000    -0.156877   
Ni1      Ni     0.497550000000     0.999600000000     0.229350000000     1.03052    
Ni2      Ni     0.495260000000     0.504660000000     0.285890000000     1.02095    
Ni3      Ni     0.044060000000     0.253610000000     0.254710000000     0.99322    
Ni4      Ni     0.488030000000     0.255310000000     0.254380000000     1.03265    
Ni5      Ni     0.246970000000     0.034830000000     0.252260000000     1.02481    
Ni6      Ni     0.243390000000     0.477210000000     0.254390000000     1.02616    
Ni7      Ni     0.200660000000     0.012520000000     0.004040000000     1.00646    
Ni8      Ni     0.256480000000     0.521070000000     0.002150000000     1.03797    
Ni9      Ni     0.000590000000     0.237760000000     0.010410000000     1.00631    
Ni10     Ni     0.999030000000     0.295220000000     0.504780000000     1.02089    
Ni11     Ni     0.249010000000     0.265330000000     0.470190000000     1.00015    
Ni12     Ni     0.250660000000     0.258990000000     0.027020000000     1.02919    
Ni13     Ni     0.497550000000     0.999600000000     0.729350000000     1.03052    
Ni14     Ni     0.495260000000     0.504660000000     0.785890000000     1.02096    
Ni15     Ni     0.044060000000     0.253610000000     0.754710000000     0.993219   
Ni16     Ni     0.488030000000     0.255310000000     0.754380000000     1.03265    
Ni17     Ni     0.246970000000     0.034830000000     0.752260000000     1.02481    
Ni18     Ni     0.243390000000     0.477210000000     0.754390000000     1.02616    
Ni19     Ni     0.200660000000     0.012520000000     0.504040000000     1.00656    
Ni20     Ni     0.256480000000     0.521070000000     0.502150000000     1.03818    
Ni21     Ni     0.000590000000     0.237760000000     0.510410000000     1.00641    
Ni22     Ni     0.999030000000     0.295220000000     0.004780000000     1.02078    
Ni23     Ni     0.249010000000     0.265330000000     0.970190000000     1.00025    
Ni24     Ni     0.250660000000     0.258990000000     0.527020000000     1.02928    
Ni25     Ni     0.497550000000     0.499600000000     0.229350000000     1.03018    
Ni26     Ni     0.495260000000     0.004660000000     0.285890000000     1.02061    
Ni27     Ni     0.044060000000     0.753610000000     0.254710000000     0.993213   
Ni28     Ni     0.488030000000     0.755310000000     0.254380000000     1.0327     
Ni29     Ni     0.246970000000     0.534830000000     0.252260000000     1.02493    
Ni30     Ni     0.243390000000     0.977210000000     0.254390000000     1.02622    
Ni31     Ni     0.200660000000     0.512520000000     0.004040000000     1.00656    
Ni32     Ni     0.256480000000     0.021070000000     0.002150000000     1.03789    
Ni33     Ni     0.000590000000     0.737760000000     0.010410000000     1.00635    
Ni34     Ni     0.999030000000     0.795220000000     0.504780000000     1.02086    
Ni35     Ni     0.249010000000     0.765330000000     0.470190000000     1.00016    
Ni36     Ni     0.250660000000     0.758990000000     0.027020000000     1.02921    
Ni37     Ni     0.497550000000     0.499600000000     0.729350000000     1.03018    
Ni38     Ni     0.495260000000     0.004660000000     0.785890000000     1.02062    
Ni39     Ni     0.044060000000     0.753610000000     0.754710000000     0.993211   
Ni40     Ni     0.488030000000     0.755310000000     0.754380000000     1.0327     
Ni41     Ni     0.246970000000     0.534830000000     0.752260000000     1.02493    
Ni42     Ni     0.243390000000     0.977210000000     0.754390000000     1.02622    
Ni43     Ni     0.200660000000     0.512520000000     0.504040000000     1.00665    
Ni44     Ni     0.256480000000     0.021070000000     0.502150000000     1.0381     
Ni45     Ni     0.000590000000     0.737760000000     0.510410000000     1.00645    
Ni46     Ni     0.999030000000     0.795220000000     0.004780000000     1.02075    
Ni47     Ni     0.249010000000     0.765330000000     0.970190000000     1.00025    
Ni48     Ni     0.250660000000     0.758990000000     0.527020000000     1.0293     
Ni49     Ni     0.997550000000     0.999600000000     0.229350000000     1.03094    
Ni50     Ni     0.995260000000     0.504660000000     0.285890000000     1.02136    
Ni51     Ni     0.544060000000     0.253610000000     0.254710000000     0.993406   
Ni52     Ni     0.988030000000     0.255310000000     0.254380000000     1.0328     
Ni53     Ni     0.746970000000     0.034830000000     0.252260000000     1.02481    
Ni54     Ni     0.743390000000     0.477210000000     0.254390000000     1.02616    
Ni55     Ni     0.700660000000     0.012520000000     0.004040000000     1.00643    
Ni56     Ni     0.756480000000     0.521070000000     0.002150000000     1.03795    
Ni57     Ni     0.500590000000     0.237760000000     0.010410000000     1.00672    
Ni58     Ni     0.499030000000     0.295220000000     0.504780000000     1.02042    
Ni59     Ni     0.749010000000     0.265330000000     0.470190000000     1.00015    
Ni60     Ni     0.750660000000     0.258990000000     0.027020000000     1.02919    
Ni61     Ni     0.997550000000     0.999600000000     0.729350000000     1.03094    
Ni62     Ni     0.995260000000     0.504660000000     0.785890000000     1.02136    
Ni63     Ni     0.544060000000     0.253610000000     0.754710000000     0.993404   
Ni64     Ni     0.988030000000     0.255310000000     0.754380000000     1.0328     
Ni65     Ni     0.746970000000     0.034830000000     0.752260000000     1.02481    
Ni66     Ni     0.743390000000     0.477210000000     0.754390000000     1.02616    
Ni67     Ni     0.700660000000     0.012520000000     0.504040000000     1.00653    
Ni68     Ni     0.756480000000     0.521070000000     0.502150000000     1.03817    
Ni69     Ni     0.500590000000     0.237760000000     0.510410000000     1.00682    
Ni70     Ni     0.499030000000     0.295220000000     0.004780000000     1.02031    
Ni71     Ni     0.749010000000     0.265330000000     0.970190000000     1.00025    
Ni72     Ni     0.750660000000     0.258990000000     0.527020000000     1.02928    
Ni73     Ni     0.997550000000     0.499600000000     0.229350000000     1.03061    
Ni74     Ni     0.995260000000     0.004660000000     0.285890000000     1.02102    
Ni75     Ni     0.544060000000     0.753610000000     0.254710000000     0.993398   
Ni76     Ni     0.988030000000     0.755310000000     0.254380000000     1.03286    
Ni77     Ni     0.746970000000     0.534830000000     0.252260000000     1.02493    
Ni78     Ni     0.743390000000     0.977210000000     0.254390000000     1.02622    
Ni79     Ni     0.700660000000     0.512520000000     0.004040000000     1.00653    
Ni80     Ni     0.756480000000     0.021070000000     0.002150000000     1.03787    
Ni81     Ni     0.500590000000     0.737760000000     0.010410000000     1.00676    
Ni82     Ni     0.499030000000     0.795220000000     0.504780000000     1.02039    
Ni83     Ni     0.749010000000     0.765330000000     0.470190000000     1.00016    
Ni84     Ni     0.750660000000     0.758990000000     0.027020000000     1.02921    
Ni85     Ni     0.997550000000     0.499600000000     0.729350000000     1.03061    
Ni86     Ni     0.995260000000     0.004660000000     0.785890000000     1.02103    
Ni87     Ni     0.544060000000     0.753610000000     0.754710000000     0.993397   
Ni88     Ni     0.988030000000     0.755310000000     0.754380000000     1.03286    
Ni89     Ni     0.746970000000     0.534830000000     0.752260000000     1.02493    
Ni90     Ni     0.743390000000     0.977210000000     0.754390000000     1.02622    
Ni91     Ni     0.700660000000     0.512520000000     0.504040000000     1.00663    
Ni92     Ni     0.756480000000     0.021070000000     0.502150000000     1.03808    
Ni93     Ni     0.500590000000     0.737760000000     0.510410000000     1.00686    
Ni94     Ni     0.499030000000     0.795220000000     0.004780000000     1.02028    
Ni95     Ni     0.749010000000     0.765330000000     0.970190000000     1.00025    
Ni96     Ni     0.750660000000     0.758990000000     0.527020000000     1.0293     
O1       O      0.001670000000     0.045890000000     0.227480000000    -0.450361   
O2       O      0.493130000000     0.453830000000     0.235450000000    -0.406592   
O3       O      0.452300000000     0.003620000000     0.229100000000    -0.439399   
O4       O      0.042570000000     0.495490000000     0.233760000000    -0.413023   
O5       O      0.040560000000     0.010050000000     0.285220000000    -0.44806    
O6       O      0.450210000000     0.498400000000     0.282290000000    -0.392933   
O7       O      0.000670000000     0.458550000000     0.288190000000    -0.435832   
O8       O      0.489920000000     0.050440000000     0.279400000000    -0.408838   
O9       O      0.043390000000     0.300130000000     0.256050000000    -0.439414   
O10      O      0.040570000000     0.207160000000     0.253310000000    -0.440227   
O11      O      0.042160000000     0.255430000000     0.208530000000    -0.443491   
O12      O      0.041710000000     0.252330000000     0.300900000000    -0.445512   
O13      O      0.490130000000     0.263640000000     0.299720000000    -0.405476   
O14      O      0.490020000000     0.247290000000     0.208990000000    -0.40798    
O15      O      0.488670000000     0.209590000000     0.262650000000    -0.435286   
O16      O      0.491530000000     0.300770000000     0.246080000000    -0.436139   
O17      O      0.201360000000     0.035460000000     0.252840000000    -0.442954   
O18      O      0.291850000000     0.030590000000     0.251710000000    -0.439197   
O19      O      0.247310000000     0.031060000000     0.206350000000    -0.44993    
O20      O      0.247520000000     0.034350000000     0.298330000000    -0.409921   
O21      O      0.239090000000     0.481050000000     0.299890000000    -0.45329    
O22      O      0.246810000000     0.476990000000     0.208680000000    -0.418743   
O23      O      0.289050000000     0.477130000000     0.258970000000    -0.435377   
O24      O      0.198490000000     0.481600000000     0.249570000000    -0.432655   
O25      O      0.196350000000     0.059230000000     0.503360000000    -0.441638   
O26      O      0.208840000000     0.466890000000     0.004830000000    -0.451239   
O27      O      0.204080000000     0.012670000000     0.049900000000    -0.440686   
O28      O      0.201160000000     0.512160000000     0.458010000000    -0.446199   
O29      O      0.252280000000     0.025660000000     0.456640000000    -0.440195   
O30      O      0.256710000000     0.517580000000     0.047910000000    -0.437882   
O31      O      0.260590000000     0.474640000000     0.497510000000    -0.406251   
O32      O      0.248630000000     0.066230000000     0.007120000000    -0.42936    
O33      O      0.495650000000     0.243400000000     0.055580000000    -0.445668   
O34      O      0.005190000000     0.235750000000     0.464360000000    -0.439159   
O35      O      0.045810000000     0.241770000000     0.014900000000    -0.442959   
O36      O      0.455210000000     0.238070000000     0.506740000000    -0.444877   
O37      O      0.453820000000     0.292130000000     0.004650000000    -0.420293   
O38      O      0.044320000000     0.294670000000     0.504200000000    -0.448644   
O39      O      0.498250000000     0.289060000000     0.459170000000    -0.429568   
O40      O      0.999890000000     0.297120000000     0.051290000000    -0.437078   
O41      O      0.203890000000     0.269720000000     0.474000000000    -0.450357   
O42      O      0.294250000000     0.261220000000     0.470270000000    -0.44038    
O43      O      0.244060000000     0.218670000000     0.467850000000    -0.436234   
O44      O      0.254200000000     0.311080000000     0.476520000000    -0.440513   
O45      O      0.250290000000     0.305680000000     0.029620000000    -0.441866   
O46      O      0.250920000000     0.213360000000     0.020640000000    -0.439525   
O47      O      0.295980000000     0.258310000000     0.023740000000    -0.444562   
O48      O      0.205270000000     0.258400000000     0.026290000000    -0.410623   
O49      O      0.001670000000     0.045890000000     0.727480000000    -0.45036    
O50      O      0.493130000000     0.453830000000     0.735450000000    -0.406592   
O51      O      0.452300000000     0.003620000000     0.729100000000    -0.439399   
O52      O      0.042570000000     0.495490000000     0.733760000000    -0.413023   
O53      O      0.040560000000     0.010050000000     0.785220000000    -0.448058   
O54      O      0.450210000000     0.498400000000     0.782290000000    -0.392932   
O55      O      0.000670000000     0.458550000000     0.788190000000    -0.435829   
O56      O      0.489920000000     0.050440000000     0.779400000000    -0.408836   
O57      O      0.043390000000     0.300130000000     0.756050000000    -0.439414   
O58      O      0.040570000000     0.207160000000     0.753310000000    -0.440227   
O59      O      0.042160000000     0.255430000000     0.708530000000    -0.443492   
O60      O      0.041710000000     0.252330000000     0.800900000000    -0.445511   
O61      O      0.490130000000     0.263640000000     0.799720000000    -0.405476   
O62      O      0.490020000000     0.247290000000     0.708990000000    -0.40798    
O63      O      0.488670000000     0.209590000000     0.762650000000    -0.435286   
O64      O      0.491530000000     0.300770000000     0.746080000000    -0.436138   
O65      O      0.201360000000     0.035460000000     0.752840000000    -0.442954   
O66      O      0.291850000000     0.030590000000     0.751710000000    -0.439197   
O67      O      0.247310000000     0.031060000000     0.706350000000    -0.44993    
O68      O      0.247520000000     0.034350000000     0.798330000000    -0.409921   
O69      O      0.239090000000     0.481050000000     0.799890000000    -0.45329    
O70      O      0.246810000000     0.476990000000     0.708680000000    -0.418743   
O71      O      0.289050000000     0.477130000000     0.758970000000    -0.435376   
O72      O      0.198490000000     0.481600000000     0.749570000000    -0.432655   
O73      O      0.196350000000     0.059230000000     0.003360000000    -0.441654   
O74      O      0.208840000000     0.466890000000     0.504830000000    -0.451263   
O75      O      0.204080000000     0.012670000000     0.549900000000    -0.440626   
O76      O      0.201160000000     0.512160000000     0.958010000000    -0.446115   
O77      O      0.252280000000     0.025660000000     0.956640000000    -0.440105   
O78      O      0.256710000000     0.517580000000     0.547910000000    -0.437822   
O79      O      0.260590000000     0.474640000000     0.997510000000    -0.406067   
O80      O      0.248630000000     0.066230000000     0.507120000000    -0.429372   
O81      O      0.495650000000     0.243400000000     0.555580000000    -0.445688   
O82      O      0.005190000000     0.235750000000     0.964360000000    -0.439074   
O83      O      0.045810000000     0.241770000000     0.514900000000    -0.442953   
O84      O      0.455210000000     0.238070000000     0.006740000000    -0.444888   
O85      O      0.453820000000     0.292130000000     0.504650000000    -0.420275   
O86      O      0.044320000000     0.294670000000     0.004200000000    -0.448666   
O87      O      0.498250000000     0.289060000000     0.959170000000    -0.429486   
O88      O      0.999890000000     0.297120000000     0.551290000000    -0.437093   
O89      O      0.203890000000     0.269720000000     0.974000000000    -0.450269   
O90      O      0.294250000000     0.261220000000     0.970270000000    -0.440406   
O91      O      0.244060000000     0.218670000000     0.967850000000    -0.436257   
O92      O      0.254200000000     0.311080000000     0.976520000000    -0.440431   
O93      O      0.250290000000     0.305680000000     0.529620000000    -0.441898   
O94      O      0.250920000000     0.213360000000     0.520640000000    -0.439442   
O95      O      0.295980000000     0.258310000000     0.523740000000    -0.444478   
O96      O      0.205270000000     0.258400000000     0.526290000000    -0.410651   
O97      O      0.001670000000     0.545890000000     0.227480000000    -0.450305   
O98      O      0.493130000000     0.953830000000     0.235450000000    -0.406616   
O99      O      0.452300000000     0.503620000000     0.229100000000    -0.439225   
O100     O      0.042570000000     0.995490000000     0.233760000000    -0.412953   
O101     O      0.040560000000     0.510050000000     0.285220000000    -0.448104   
O102     O      0.450210000000     0.998400000000     0.282290000000    -0.392861   
O103     O      0.000670000000     0.958550000000     0.288190000000    -0.435741   
O104     O      0.489920000000     0.550440000000     0.279400000000    -0.408891   
O105     O      0.043390000000     0.800130000000     0.256050000000    -0.439417   
O106     O      0.040570000000     0.707160000000     0.253310000000    -0.440228   
O107     O      0.042160000000     0.755430000000     0.208530000000    -0.443493   
O108     O      0.041710000000     0.752330000000     0.300900000000    -0.445526   
O109     O      0.490130000000     0.763630000000     0.299720000000    -0.405547   
O110     O      0.490020000000     0.747290000000     0.208990000000    -0.40799    
O111     O      0.488670000000     0.709590000000     0.262650000000    -0.435281   
O112     O      0.491530000000     0.800770000000     0.246080000000    -0.436152   
O113     O      0.201360000000     0.535460000000     0.252840000000    -0.442986   
O114     O      0.291850000000     0.530590000000     0.251710000000    -0.439228   
O115     O      0.247310000000     0.531060000000     0.206350000000    -0.449965   
O116     O      0.247520000000     0.534350000000     0.298330000000    -0.409953   
O117     O      0.239090000000     0.981050000000     0.299890000000    -0.453202   
O118     O      0.246810000000     0.976990000000     0.208680000000    -0.418652   
O119     O      0.289050000000     0.977130000000     0.258970000000    -0.435287   
O120     O      0.198490000000     0.981600000000     0.249570000000    -0.432567   
O121     O      0.196350000000     0.559230000000     0.503360000000    -0.44165    
O122     O      0.208840000000     0.966890000000     0.004830000000    -0.451193   
O123     O      0.204080000000     0.512670000000     0.049900000000    -0.440667   
O124     O      0.201160000000     0.012160000000     0.458010000000    -0.446212   
O125     O      0.252280000000     0.525660000000     0.456640000000    -0.440194   
O126     O      0.256710000000     0.017580000000     0.047910000000    -0.437895   
O127     O      0.260590000000     0.974640000000     0.497510000000    -0.406198   
O128     O      0.248630000000     0.566230000000     0.007120000000    -0.429364   
O129     O      0.495650000000     0.743400000000     0.055580000000    -0.445777   
O130     O      0.005190000000     0.735750000000     0.464360000000    -0.439163   
O131     O      0.045810000000     0.741770000000     0.014900000000    -0.442963   
O132     O      0.455210000000     0.738070000000     0.506740000000    -0.444879   
O133     O      0.453820000000     0.792130000000     0.004650000000    -0.420287   
O134     O      0.044320000000     0.794670000000     0.504200000000    -0.448639   
O135     O      0.498250000000     0.789060000000     0.459170000000    -0.429561   
O136     O      0.999890000000     0.797120000000     0.051290000000    -0.436986   
O137     O      0.203890000000     0.769720000000     0.474000000000    -0.450374   
O138     O      0.294250000000     0.761220000000     0.470270000000    -0.440382   
O139     O      0.244060000000     0.718670000000     0.467850000000    -0.436328   
O140     O      0.254200000000     0.811080000000     0.476520000000    -0.440512   
O141     O      0.250290000000     0.805680000000     0.029620000000    -0.441856   
O142     O      0.250920000000     0.713360000000     0.020640000000    -0.439611   
O143     O      0.295980000000     0.758310000000     0.023740000000    -0.444565   
O144     O      0.205270000000     0.758410000000     0.026290000000    -0.410668   
O145     O      0.001670000000     0.545890000000     0.727480000000    -0.450304   
O146     O      0.493130000000     0.953830000000     0.735450000000    -0.406616   
O147     O      0.452300000000     0.503620000000     0.729100000000    -0.439224   
O148     O      0.042570000000     0.995490000000     0.733760000000    -0.412952   
O149     O      0.040560000000     0.510050000000     0.785220000000    -0.448102   
O150     O      0.450210000000     0.998400000000     0.782290000000    -0.39286    
O151     O      0.000670000000     0.958550000000     0.788190000000    -0.435739   
O152     O      0.489920000000     0.550440000000     0.779400000000    -0.408889   
O153     O      0.043390000000     0.800130000000     0.756050000000    -0.439417   
O154     O      0.040570000000     0.707160000000     0.753310000000    -0.440228   
O155     O      0.042160000000     0.755430000000     0.708530000000    -0.443494   
O156     O      0.041710000000     0.752330000000     0.800900000000    -0.445526   
O157     O      0.490130000000     0.763630000000     0.799720000000    -0.405546   
O158     O      0.490020000000     0.747290000000     0.708990000000    -0.40799    
O159     O      0.488670000000     0.709590000000     0.762650000000    -0.435281   
O160     O      0.491530000000     0.800770000000     0.746080000000    -0.436151   
O161     O      0.201360000000     0.535460000000     0.752840000000    -0.442987   
O162     O      0.291850000000     0.530590000000     0.751710000000    -0.439229   
O163     O      0.247310000000     0.531060000000     0.706350000000    -0.449965   
O164     O      0.247520000000     0.534350000000     0.798330000000    -0.409953   
O165     O      0.239090000000     0.981050000000     0.799890000000    -0.453202   
O166     O      0.246810000000     0.976990000000     0.708680000000    -0.418652   
O167     O      0.289050000000     0.977130000000     0.758970000000    -0.435287   
O168     O      0.198490000000     0.981600000000     0.749570000000    -0.432567   
O169     O      0.196350000000     0.559230000000     0.003360000000    -0.441667   
O170     O      0.208840000000     0.966890000000     0.504830000000    -0.451217   
O171     O      0.204080000000     0.512670000000     0.549900000000    -0.440607   
O172     O      0.201160000000     0.012160000000     0.958010000000    -0.446128   
O173     O      0.252280000000     0.525660000000     0.956640000000    -0.440104   
O174     O      0.256710000000     0.017580000000     0.547910000000    -0.437835   
O175     O      0.260590000000     0.974640000000     0.997510000000    -0.406015   
O176     O      0.248630000000     0.566230000000     0.507120000000    -0.429376   
O177     O      0.495650000000     0.743400000000     0.555580000000    -0.445797   
O178     O      0.005190000000     0.735750000000     0.964360000000    -0.439078   
O179     O      0.045810000000     0.741770000000     0.514900000000    -0.442957   
O180     O      0.455210000000     0.738070000000     0.006740000000    -0.44489    
O181     O      0.453820000000     0.792130000000     0.504650000000    -0.420269   
O182     O      0.044320000000     0.794670000000     0.004200000000    -0.448661   
O183     O      0.498250000000     0.789060000000     0.959170000000    -0.42948    
O184     O      0.999890000000     0.797120000000     0.551290000000    -0.437002   
O185     O      0.203890000000     0.769720000000     0.974000000000    -0.450286   
O186     O      0.294250000000     0.761220000000     0.970270000000    -0.440408   
O187     O      0.244060000000     0.718670000000     0.967850000000    -0.436351   
O188     O      0.254200000000     0.811080000000     0.976520000000    -0.440429   
O189     O      0.250290000000     0.805680000000     0.529620000000    -0.441888   
O190     O      0.250920000000     0.713360000000     0.520640000000    -0.439527   
O191     O      0.295980000000     0.758310000000     0.523740000000    -0.444482   
O192     O      0.205270000000     0.758410000000     0.526290000000    -0.410695   
O193     O      0.501670000000     0.045890000000     0.227480000000    -0.450112   
O194     O      0.993130000000     0.453830000000     0.235450000000    -0.406629   
O195     O      0.952300000000     0.003620000000     0.229100000000    -0.439441   
O196     O      0.542570000000     0.495490000000     0.233760000000    -0.412882   
O197     O      0.540560000000     0.010050000000     0.285220000000    -0.447924   
O198     O      0.950210000000     0.498400000000     0.282290000000    -0.392976   
O199     O      0.500670000000     0.458550000000     0.288190000000    -0.435581   
O200     O      0.989920000000     0.050440000000     0.279400000000    -0.408885   
O201     O      0.543390000000     0.300130000000     0.256050000000    -0.439462   
O202     O      0.540570000000     0.207160000000     0.253310000000    -0.440273   
O203     O      0.542160000000     0.255430000000     0.208530000000    -0.443538   
O204     O      0.541710000000     0.252330000000     0.300900000000    -0.445558   
O205     O      0.990130000000     0.263640000000     0.299720000000    -0.405326   
O206     O      0.990020000000     0.247290000000     0.208990000000    -0.407831   
O207     O      0.988670000000     0.209590000000     0.262650000000    -0.435136   
O208     O      0.991530000000     0.300770000000     0.246080000000    -0.435987   
O209     O      0.701360000000     0.035460000000     0.252840000000    -0.442954   
O210     O      0.791850000000     0.030590000000     0.251710000000    -0.439196   
O211     O      0.747310000000     0.031060000000     0.206350000000    -0.44993    
O212     O      0.747520000000     0.034350000000     0.298330000000    -0.409921   
O213     O      0.739090000000     0.481050000000     0.299890000000    -0.453291   
O214     O      0.746810000000     0.476990000000     0.208680000000    -0.418742   
O215     O      0.789050000000     0.477130000000     0.258970000000    -0.435376   
O216     O      0.698490000000     0.481600000000     0.249570000000    -0.432656   
O217     O      0.696350000000     0.059230000000     0.503360000000    -0.441633   
O218     O      0.708830000000     0.466890000000     0.004830000000    -0.451067   
O219     O      0.704080000000     0.012670000000     0.049900000000    -0.440683   
O220     O      0.701160000000     0.512160000000     0.458010000000    -0.446194   
O221     O      0.752280000000     0.025660000000     0.456640000000    -0.44019    
O222     O      0.756710000000     0.517580000000     0.047910000000    -0.437876   
O223     O      0.760590000000     0.474640000000     0.497510000000    -0.406177   
O224     O      0.748630000000     0.066230000000     0.007120000000    -0.429352   
O225     O      0.995650000000     0.243400000000     0.055580000000    -0.44549    
O226     O      0.505190000000     0.235750000000     0.464360000000    -0.439242   
O227     O      0.545810000000     0.241770000000     0.014900000000    -0.442982   
O228     O      0.955210000000     0.238070000000     0.506740000000    -0.444745   
O229     O      0.953820000000     0.292130000000     0.004650000000    -0.420331   
O230     O      0.544320000000     0.294670000000     0.504200000000    -0.448507   
O231     O      0.998250000000     0.289060000000     0.459170000000    -0.429416   
O232     O      0.499890000000     0.297120000000     0.051290000000    -0.43713    
O233     O      0.703890000000     0.269720000000     0.474000000000    -0.450358   
O234     O      0.794250000000     0.261220000000     0.470270000000    -0.440379   
O235     O      0.744060000000     0.218670000000     0.467850000000    -0.436234   
O236     O      0.754200000000     0.311080000000     0.476520000000    -0.440513   
O237     O      0.750290000000     0.305680000000     0.029620000000    -0.441865   
O238     O      0.750920000000     0.213360000000     0.020640000000    -0.439525   
O239     O      0.795980000000     0.258310000000     0.023740000000    -0.444561   
O240     O      0.705270000000     0.258400000000     0.026290000000    -0.410623   
O241     O      0.501670000000     0.045890000000     0.727480000000    -0.450111   
O242     O      0.993130000000     0.453830000000     0.735450000000    -0.40663    
O243     O      0.952300000000     0.003620000000     0.729100000000    -0.43944    
O244     O      0.542570000000     0.495490000000     0.733760000000    -0.412882   
O245     O      0.540560000000     0.010050000000     0.785220000000    -0.447922   
O246     O      0.950210000000     0.498400000000     0.782290000000    -0.392974   
O247     O      0.500670000000     0.458550000000     0.788190000000    -0.435578   
O248     O      0.989920000000     0.050440000000     0.779400000000    -0.408884   
O249     O      0.543390000000     0.300130000000     0.756050000000    -0.439461   
O250     O      0.540570000000     0.207160000000     0.753310000000    -0.440273   
O251     O      0.542160000000     0.255430000000     0.708530000000    -0.443538   
O252     O      0.541710000000     0.252330000000     0.800900000000    -0.445558   
O253     O      0.990130000000     0.263640000000     0.799720000000    -0.405325   
O254     O      0.990020000000     0.247290000000     0.708990000000    -0.407831   
O255     O      0.988670000000     0.209590000000     0.762650000000    -0.435136   
O256     O      0.991530000000     0.300770000000     0.746080000000    -0.435986   
O257     O      0.701360000000     0.035460000000     0.752840000000    -0.442955   
O258     O      0.791850000000     0.030590000000     0.751710000000    -0.439196   
O259     O      0.747310000000     0.031060000000     0.706350000000    -0.44993    
O260     O      0.747520000000     0.034350000000     0.798330000000    -0.409921   
O261     O      0.739090000000     0.481050000000     0.799890000000    -0.453291   
O262     O      0.746810000000     0.476990000000     0.708680000000    -0.418743   
O263     O      0.789050000000     0.477130000000     0.758970000000    -0.435376   
O264     O      0.698490000000     0.481600000000     0.749570000000    -0.432656   
O265     O      0.696350000000     0.059230000000     0.003360000000    -0.441649   
O266     O      0.708830000000     0.466890000000     0.504830000000    -0.451091   
O267     O      0.704080000000     0.012670000000     0.549900000000    -0.440624   
O268     O      0.701160000000     0.512160000000     0.958010000000    -0.44611    
O269     O      0.752280000000     0.025660000000     0.956640000000    -0.440099   
O270     O      0.756710000000     0.517580000000     0.547910000000    -0.437817   
O271     O      0.760590000000     0.474640000000     0.997510000000    -0.405994   
O272     O      0.748630000000     0.066230000000     0.507120000000    -0.429364   
O273     O      0.995650000000     0.243400000000     0.555580000000    -0.44551    
O274     O      0.505190000000     0.235750000000     0.964360000000    -0.439157   
O275     O      0.545810000000     0.241770000000     0.514900000000    -0.442976   
O276     O      0.955210000000     0.238070000000     0.006740000000    -0.444756   
O277     O      0.953820000000     0.292130000000     0.504650000000    -0.420313   
O278     O      0.544320000000     0.294670000000     0.004200000000    -0.44853    
O279     O      0.998250000000     0.289060000000     0.959170000000    -0.429335   
O280     O      0.499890000000     0.297120000000     0.551290000000    -0.437145   
O281     O      0.703890000000     0.269720000000     0.974000000000    -0.450269   
O282     O      0.794250000000     0.261220000000     0.970270000000    -0.440405   
O283     O      0.744060000000     0.218670000000     0.967850000000    -0.436257   
O284     O      0.754200000000     0.311080000000     0.976520000000    -0.440431   
O285     O      0.750290000000     0.305680000000     0.529620000000    -0.441898   
O286     O      0.750920000000     0.213360000000     0.520640000000    -0.439441   
O287     O      0.795980000000     0.258310000000     0.523740000000    -0.444477   
O288     O      0.705270000000     0.258400000000     0.526290000000    -0.410651   
O289     O      0.501670000000     0.545890000000     0.227480000000    -0.450055   
O290     O      0.993130000000     0.953830000000     0.235450000000    -0.406653   
O291     O      0.952300000000     0.503620000000     0.229100000000    -0.439268   
O292     O      0.542570000000     0.995490000000     0.233760000000    -0.412812   
O293     O      0.540560000000     0.510050000000     0.285220000000    -0.447968   
O294     O      0.950210000000     0.998400000000     0.282290000000    -0.392904   
O295     O      0.500670000000     0.958550000000     0.288190000000    -0.43549    
O296     O      0.989920000000     0.550440000000     0.279400000000    -0.408938   
O297     O      0.543390000000     0.800130000000     0.256050000000    -0.439465   
O298     O      0.540570000000     0.707160000000     0.253310000000    -0.440274   
O299     O      0.542160000000     0.755430000000     0.208530000000    -0.44354    
O300     O      0.541710000000     0.752330000000     0.300900000000    -0.445573   
O301     O      0.990130000000     0.763630000000     0.299720000000    -0.405396   
O302     O      0.990020000000     0.747290000000     0.208990000000    -0.407841   
O303     O      0.988670000000     0.709590000000     0.262650000000    -0.435132   
O304     O      0.991530000000     0.800770000000     0.246080000000    -0.436      
O305     O      0.701360000000     0.535460000000     0.252840000000    -0.442987   
O306     O      0.791850000000     0.530590000000     0.251710000000    -0.439227   
O307     O      0.747310000000     0.531060000000     0.206350000000    -0.449965   
O308     O      0.747520000000     0.534350000000     0.298330000000    -0.409953   
O309     O      0.739090000000     0.981050000000     0.299890000000    -0.453203   
O310     O      0.746810000000     0.976990000000     0.208680000000    -0.418652   
O311     O      0.789050000000     0.977130000000     0.258970000000    -0.435287   
O312     O      0.698490000000     0.981600000000     0.249570000000    -0.432568   
O313     O      0.696350000000     0.559230000000     0.503360000000    -0.441645   
O314     O      0.708830000000     0.966890000000     0.004830000000    -0.451021   
O315     O      0.704080000000     0.512670000000     0.049900000000    -0.440665   
O316     O      0.701160000000     0.012160000000     0.458010000000    -0.446207   
O317     O      0.752280000000     0.525660000000     0.456640000000    -0.440188   
O318     O      0.756710000000     0.017580000000     0.047910000000    -0.43789    
O319     O      0.760590000000     0.974640000000     0.497510000000    -0.406124   
O320     O      0.748630000000     0.566230000000     0.007120000000    -0.429357   
O321     O      0.995650000000     0.743400000000     0.055580000000    -0.445599   
O322     O      0.505190000000     0.735750000000     0.464360000000    -0.439246   
O323     O      0.545810000000     0.741770000000     0.014900000000    -0.442986   
O324     O      0.955210000000     0.738070000000     0.506740000000    -0.444747   
O325     O      0.953820000000     0.792130000000     0.004650000000    -0.420325   
O326     O      0.544320000000     0.794670000000     0.504200000000    -0.448502   
O327     O      0.998250000000     0.789060000000     0.459170000000    -0.42941    
O328     O      0.499890000000     0.797120000000     0.051290000000    -0.437038   
O329     O      0.703890000000     0.769720000000     0.474000000000    -0.450375   
O330     O      0.794250000000     0.761220000000     0.470270000000    -0.440381   
O331     O      0.744060000000     0.718670000000     0.467850000000    -0.436327   
O332     O      0.754200000000     0.811080000000     0.476520000000    -0.440511   
O333     O      0.750290000000     0.805680000000     0.029620000000    -0.441855   
O334     O      0.750920000000     0.713360000000     0.020640000000    -0.43961    
O335     O      0.795980000000     0.758310000000     0.023740000000    -0.444564   
O336     O      0.705270000000     0.758410000000     0.026290000000    -0.410668   
O337     O      0.501670000000     0.545890000000     0.727480000000    -0.450054   
O338     O      0.993130000000     0.953830000000     0.735450000000    -0.406653   
O339     O      0.952300000000     0.503620000000     0.729100000000    -0.439267   
O340     O      0.542570000000     0.995490000000     0.733760000000    -0.412811   
O341     O      0.540560000000     0.510050000000     0.785220000000    -0.447966   
O342     O      0.950210000000     0.998400000000     0.782290000000    -0.392903   
O343     O      0.500670000000     0.958550000000     0.788190000000    -0.435487   
O344     O      0.989920000000     0.550440000000     0.779400000000    -0.408937   
O345     O      0.543390000000     0.800130000000     0.756050000000    -0.439464   
O346     O      0.540570000000     0.707160000000     0.753310000000    -0.440274   
O347     O      0.542160000000     0.755430000000     0.708530000000    -0.44354    
O348     O      0.541710000000     0.752330000000     0.800900000000    -0.445572   
O349     O      0.990130000000     0.763630000000     0.799720000000    -0.405396   
O350     O      0.990020000000     0.747290000000     0.708990000000    -0.407841   
O351     O      0.988670000000     0.709590000000     0.762650000000    -0.435131   
O352     O      0.991530000000     0.800770000000     0.746080000000    -0.435999   
O353     O      0.701360000000     0.535460000000     0.752840000000    -0.442987   
O354     O      0.791850000000     0.530590000000     0.751710000000    -0.439228   
O355     O      0.747310000000     0.531060000000     0.706350000000    -0.449965   
O356     O      0.747520000000     0.534350000000     0.798330000000    -0.409953   
O357     O      0.739090000000     0.981050000000     0.799890000000    -0.453203   
O358     O      0.746810000000     0.976990000000     0.708680000000    -0.418652   
O359     O      0.789050000000     0.977130000000     0.758970000000    -0.435287   
O360     O      0.698490000000     0.981600000000     0.749570000000    -0.432568   
O361     O      0.696350000000     0.559230000000     0.003360000000    -0.441662   
O362     O      0.708830000000     0.966890000000     0.504830000000    -0.451046   
O363     O      0.704080000000     0.512670000000     0.549900000000    -0.440605   
O364     O      0.701160000000     0.012160000000     0.958010000000    -0.446123   
O365     O      0.752280000000     0.525660000000     0.956640000000    -0.440098   
O366     O      0.756710000000     0.017580000000     0.547910000000    -0.43783    
O367     O      0.760590000000     0.974640000000     0.997510000000    -0.405941   
O368     O      0.748630000000     0.566230000000     0.507120000000    -0.429368   
O369     O      0.995650000000     0.743400000000     0.555580000000    -0.445619   
O370     O      0.505190000000     0.735750000000     0.964360000000    -0.439161   
O371     O      0.545810000000     0.741770000000     0.514900000000    -0.44298    
O372     O      0.955210000000     0.738070000000     0.006740000000    -0.444758   
O373     O      0.953820000000     0.792130000000     0.504650000000    -0.420307   
O374     O      0.544320000000     0.794670000000     0.004200000000    -0.448525   
O375     O      0.998250000000     0.789060000000     0.959170000000    -0.429328   
O376     O      0.499890000000     0.797120000000     0.551290000000    -0.437054   
O377     O      0.703890000000     0.769720000000     0.974000000000    -0.450286   
O378     O      0.794250000000     0.761220000000     0.970270000000    -0.440406   
O379     O      0.744060000000     0.718670000000     0.967850000000    -0.43635    
O380     O      0.754200000000     0.811080000000     0.976520000000    -0.440429   
O381     O      0.750290000000     0.805680000000     0.529620000000    -0.441888   
O382     O      0.750920000000     0.713360000000     0.520640000000    -0.439527   
O383     O      0.795980000000     0.758310000000     0.523740000000    -0.444481   
O384     O      0.705270000000     0.758410000000     0.526290000000    -0.410695   


