data_structure

_audit_creation_method RASPA-1.0
_audit_creation_date 2023-5-19
_audit_author_name 'Poobodin Mano'

_cell_length_a    41.8905
_cell_length_b    41.6586
_cell_length_c    42.4046
_cell_angle_alpha 90
_cell_angle_beta  90
_cell_angle_gamma 90
_cell_volume      74000.2

_symmetry_cell_setting          triclinic
_symmetry_space_group_name_Hall 'P 1'
_symmetry_space_group_name_H-M  'P 1'
_symmetry_Int_Tables_number     1

_symmetry_equiv_pos_as_xyz 'x,y,z'

loop_
_atom_site_label
_atom_site_type_symbol
_atom_site_fract_x
_atom_site_fract_y
_atom_site_fract_z
_atom_site_charge
C1       C      0.445170000000     0.995170000000     0.244220000000     0.435884   
C2       C      0.066530000000     0.497580000000     0.250170000000     0.430493   
C3       C      0.505340000000     0.056930000000     0.246380000000     0.436802   
C4       C      0.506170000000     0.434680000000     0.248090000000     0.432152   
C5       C      0.487710000000     0.245890000000     0.172360000000     0.429208   
C6       C      0.492060000000     0.239670000000     0.292770000000     0.42566    
C7       C      0.986340000000     0.181850000000     0.228450000000     0.427317   
C8       C      0.993340000000     0.303790000000     0.235440000000     0.423609   
C9       C      0.319390000000     0.014480000000     0.254050000000     0.434621   
C10      C      0.198420000000     0.004580000000     0.251760000000     0.428207   
C11      C      0.261280000000     0.508020000000     0.192100000000     0.430541   
C12      C      0.256770000000     0.511580000000     0.311670000000     0.437426   
C13      C      0.253370000000     0.070720000000     0.504420000000     0.434018   
C14      C      0.254430000000     0.448570000000     0.999940000000     0.430132   
C15      C      0.251530000000     0.012690000000     0.442400000000     0.435185   
C16      C      0.256040000000     0.006600000000     0.061940000000     0.437823   
C17      C      0.995600000000     0.256500000000     0.043900000000     0.428297   
C18      C      0.495670000000     0.244940000000     0.424060000000     0.424865   
C19      C      0.055860000000     0.247470000000     0.984580000000     0.426571   
C20      C      0.434490000000     0.254050000000     0.984600000000     0.430095   
C21      C      0.253050000000     0.202830000000     0.499510000000     0.439344   
C22      C      0.240340000000     0.323350000000     0.482480000000     0.430105   
C23      C      0.186690000000     0.256280000000     0.984180000000     0.432844   
C24      C      0.306860000000     0.269550000000     0.997950000000     0.428422   
C25      C      0.384240000000     0.277090000000     0.464330000000    -0.0092893  
C26      C      0.383550000000     0.234250000000     0.006510000000     0.0151622  
C27      C      0.357140000000     0.294530000000     0.481330000000    -0.00957954 
C28      C      0.357850000000     0.253410000000     0.024580000000    -0.0590378  
C29      C      0.338130000000     0.231190000000     0.045040000000     0.316948   
C30      C      0.104680000000     0.266930000000     0.009700000000    -0.00131746 
C31      C      0.106730000000     0.219400000000     0.473410000000     0.0100261  
C32      C      0.134990000000     0.280130000000     0.995130000000    -0.0184488  
C33      C      0.138060000000     0.232290000000     0.458570000000    -0.0583526  
C34      C      0.158810000000     0.204310000000     0.448600000000     0.315287   
C35      C      0.278320000000     0.397280000000     0.981850000000    -0.00807974 
C36      C      0.230070000000     0.397780000000     0.017360000000     0.0160909  
C37      C      0.261240000000     0.373230000000     0.459880000000    -0.0142138  
C38      C      0.212940000000     0.375340000000     0.494560000000    -0.0558063  
C39      C      0.186630000000     0.356490000000     0.010420000000     0.31717    
C40      C      0.281260000000     0.152750000000     0.986020000000    -0.0101018  
C41      C      0.243540000000     0.154680000000     0.032020000000     0.0137705  
C42      C      0.269120000000     0.119310000000     0.477460000000    -0.0121446  
C43      C      0.229380000000     0.122050000000     0.522320000000    -0.0590245  
C44      C      0.217780000000     0.104510000000     0.051460000000     0.314595   
C45      C      0.275880000000     0.032840000000     0.394000000000    -0.00622378 
C46      C      0.223910000000     0.500930000000     0.392550000000     0.0128339  
C47      C      0.265920000000     0.041540000000     0.360440000000    -0.00447047 
C48      C      0.236100000000     0.487980000000     0.360740000000    -0.0564604  
C49      C      0.256160000000     0.458240000000     0.365580000000     0.321461   
C50      C      0.230010000000     0.515510000000     0.112850000000    -0.00352302 
C51      C      0.279350000000     0.481300000000     0.108870000000     0.00985439 
C52      C      0.242960000000     0.030900000000     0.142610000000    -0.0119219  
C53      C      0.289270000000     0.992130000000     0.142360000000    -0.0587353  
C54      C      0.304840000000     0.464450000000     0.159690000000     0.316979   
C55      C      0.022500000000     0.258000000000     0.374030000000    -0.00728121 
C56      C      0.981510000000     0.214290000000     0.376570000000     0.0100197  
C57      C      0.512350000000     0.265570000000     0.339990000000    -0.0135656  
C58      C      0.467920000000     0.224810000000     0.344490000000    -0.0568107  
C59      C      0.952710000000     0.195970000000     0.328790000000     0.312818   
C60      C      0.006640000000     0.224000000000     0.121910000000    -0.00232277 
C61      C      0.463190000000     0.265990000000     0.122960000000     0.00912546 
C62      C      0.021350000000     0.240230000000     0.093150000000    -0.00901499 
C63      C      0.479710000000     0.283280000000     0.095090000000    -0.0579799  
C64      C      0.455570000000     0.302610000000     0.076610000000     0.31742    
C65      C      0.149990000000     0.471950000000     0.244520000000    -0.0084225  
C66      C      0.148250000000     0.023350000000     0.275600000000     0.00941095 
C67      C      0.117840000000     0.480230000000     0.229740000000    -0.00998367 
C68      C      0.114340000000     0.029910000000     0.263150000000    -0.0581581  
C69      C      0.094900000000     0.047550000000     0.287810000000     0.313769   
C70      C      0.395120000000     0.512090000000     0.217960000000    -0.0118549  
C71      C      0.393910000000     0.478180000000     0.267280000000     0.0120204  
C72      C      0.370110000000     0.034730000000     0.232760000000    -0.00947746 
C73      C      0.370210000000     0.001530000000     0.282120000000    -0.054543   
C74      C      0.350060000000     0.985840000000     0.307520000000     0.313374   
C75      C      0.016930000000     0.353910000000     0.215460000000    -0.00542071 
C76      C      0.470150000000     0.354970000000     0.252850000000     0.0105235  
C77      C      0.030200000000     0.384260000000     0.231020000000    -0.0116999  
C78      C      0.485230000000     0.383430000000     0.270560000000    -0.0582954  
C79      C      0.459140000000     0.403220000000     0.285810000000     0.315807   
C80      C      0.484620000000     0.108320000000     0.266960000000    -0.0101998  
C81      C      0.025440000000     0.107340000000     0.223270000000     0.0110825  
C82      C      0.463700000000     0.131070000000     0.247150000000    -0.0124437  
C83      C      0.004440000000     0.130060000000     0.204020000000    -0.0484582  
C84      C      0.023500000000     0.149550000000     0.180550000000     0.311401   
C85      C      0.445170000000     0.995170000000     0.744220000000     0.435893   
C86      C      0.066530000000     0.497580000000     0.750170000000     0.4305     
C87      C      0.505340000000     0.056930000000     0.746380000000     0.436812   
C88      C      0.506170000000     0.434680000000     0.748090000000     0.432165   
C89      C      0.487710000000     0.245890000000     0.672350000000     0.429122   
C90      C      0.492060000000     0.239670000000     0.792770000000     0.425665   
C91      C      0.986340000000     0.181850000000     0.728450000000     0.4273     
C92      C      0.993340000000     0.303790000000     0.735440000000     0.423589   
C93      C      0.319390000000     0.014480000000     0.754050000000     0.434634   
C94      C      0.198420000000     0.004580000000     0.751760000000     0.428167   
C95      C      0.261280000000     0.508020000000     0.692100000000     0.430552   
C96      C      0.256770000000     0.511580000000     0.811670000000     0.43736    
C97      C      0.253370000000     0.070720000000     0.004420000000     0.434448   
C98      C      0.254430000000     0.448570000000     0.499930000000     0.432124   
C99      C      0.251530000000     0.012690000000     0.942400000000     0.435577   
C100     C      0.256040000000     0.006600000000     0.561930000000     0.437644   
C101     C      0.995600000000     0.256500000000     0.543900000000     0.42856    
C102     C      0.495670000000     0.244940000000     0.924060000000     0.424735   
C103     C      0.055860000000     0.247470000000     0.484580000000     0.426805   
C104     C      0.434490000000     0.254050000000     0.484600000000     0.430333   
C105     C      0.253050000000     0.202830000000     0.999510000000     0.43519    
C106     C      0.240340000000     0.323350000000     0.982480000000     0.427535   
C107     C      0.186690000000     0.256280000000     0.484180000000     0.435364   
C108     C      0.306860000000     0.269550000000     0.497950000000     0.43248    
C109     C      0.384240000000     0.277090000000     0.964330000000    -0.00890764 
C110     C      0.383550000000     0.234250000000     0.506510000000     0.0111503  
C111     C      0.357140000000     0.294530000000     0.981330000000    -0.0113421  
C112     C      0.357850000000     0.253410000000     0.524580000000    -0.0581769  
C113     C      0.338130000000     0.231190000000     0.545040000000     0.316448   
C114     C      0.104680000000     0.266930000000     0.509700000000    -0.00557785 
C115     C      0.106730000000     0.219400000000     0.973400000000     0.0102159  
C116     C      0.134990000000     0.280130000000     0.495130000000    -0.0136442  
C117     C      0.138060000000     0.232290000000     0.958570000000    -0.0587764  
C118     C      0.158810000000     0.204310000000     0.948600000000     0.315489   
C119     C      0.278320000000     0.397280000000     0.481850000000    -0.00824576 
C120     C      0.230070000000     0.397780000000     0.517360000000     0.0119964  
C121     C      0.261240000000     0.373230000000     0.959880000000    -0.0146171  
C122     C      0.212940000000     0.375340000000     0.994560000000    -0.060691   
C123     C      0.186630000000     0.356490000000     0.510420000000     0.311861   
C124     C      0.281260000000     0.152750000000     0.486020000000    -0.00631268 
C125     C      0.243540000000     0.154680000000     0.532020000000     0.0139517  
C126     C      0.269120000000     0.119310000000     0.977460000000    -0.0126663  
C127     C      0.229380000000     0.122050000000     0.022320000000    -0.0587816  
C128     C      0.217780000000     0.104510000000     0.551450000000     0.314508   
C129     C      0.275880000000     0.032840000000     0.894000000000    -0.00618148 
C130     C      0.223910000000     0.500930000000     0.892550000000     0.0128669  
C131     C      0.265920000000     0.041540000000     0.860440000000    -0.00449278 
C132     C      0.236100000000     0.487980000000     0.860740000000    -0.0564898  
C133     C      0.256160000000     0.458240000000     0.865580000000     0.321488   
C134     C      0.230010000000     0.515510000000     0.612850000000    -0.00353199 
C135     C      0.279350000000     0.481300000000     0.608870000000     0.00984806 
C136     C      0.242960000000     0.030900000000     0.642610000000    -0.011926   
C137     C      0.289270000000     0.992130000000     0.642360000000    -0.0587419  
C138     C      0.304840000000     0.464450000000     0.659690000000     0.316958   
C139     C      0.022500000000     0.258000000000     0.874030000000    -0.00728769 
C140     C      0.981510000000     0.214290000000     0.876570000000     0.010027   
C141     C      0.512350000000     0.265570000000     0.839990000000    -0.0135618  
C142     C      0.467920000000     0.224810000000     0.844490000000    -0.0568144  
C143     C      0.952710000000     0.195970000000     0.828790000000     0.312812   
C144     C      0.006640000000     0.224000000000     0.621910000000    -0.002266   
C145     C      0.463190000000     0.265990000000     0.622960000000     0.00915614 
C146     C      0.021350000000     0.240230000000     0.593150000000    -0.00898904 
C147     C      0.479710000000     0.283280000000     0.595090000000    -0.0580176  
C148     C      0.455570000000     0.302610000000     0.576610000000     0.31738    
C149     C      0.149990000000     0.471950000000     0.744520000000    -0.00842353 
C150     C      0.148250000000     0.023350000000     0.775600000000     0.00943089 
C151     C      0.117840000000     0.480230000000     0.729740000000    -0.00997476 
C152     C      0.114340000000     0.029910000000     0.763150000000    -0.0581972  
C153     C      0.094900000000     0.047550000000     0.787810000000     0.313861   
C154     C      0.395120000000     0.512090000000     0.717960000000    -0.0118784  
C155     C      0.393910000000     0.478180000000     0.767280000000     0.012022   
C156     C      0.370110000000     0.034730000000     0.732770000000    -0.00939762 
C157     C      0.370210000000     0.001530000000     0.782120000000    -0.0545391  
C158     C      0.350060000000     0.985840000000     0.807520000000     0.313369   
C159     C      0.016930000000     0.353910000000     0.715460000000    -0.00541    
C160     C      0.470150000000     0.354970000000     0.752860000000     0.010481   
C161     C      0.030200000000     0.384260000000     0.731020000000    -0.0116607  
C162     C      0.485230000000     0.383430000000     0.770560000000    -0.0583151  
C163     C      0.459140000000     0.403220000000     0.785810000000     0.315811   
C164     C      0.484620000000     0.108320000000     0.766960000000    -0.0101916  
C165     C      0.025440000000     0.107340000000     0.723270000000     0.01108    
C166     C      0.463700000000     0.131070000000     0.747150000000    -0.012441   
C167     C      0.004440000000     0.130060000000     0.704020000000    -0.0484254  
C168     C      0.023500000000     0.149550000000     0.680550000000     0.311391   
C169     C      0.445170000000     0.495180000000     0.244220000000     0.435872   
C170     C      0.066530000000     0.997580000000     0.250170000000     0.430511   
C171     C      0.505340000000     0.556930000000     0.246380000000     0.436796   
C172     C      0.506170000000     0.934680000000     0.248090000000     0.43215    
C173     C      0.487710000000     0.745890000000     0.172360000000     0.429207   
C174     C      0.492060000000     0.739670000000     0.292770000000     0.42566    
C175     C      0.986340000000     0.681850000000     0.228450000000     0.427317   
C176     C      0.993340000000     0.803790000000     0.235440000000     0.423609   
C177     C      0.319390000000     0.514480000000     0.254050000000     0.434645   
C178     C      0.198420000000     0.504580000000     0.251760000000     0.428229   
C179     C      0.261280000000     0.008020000000     0.192100000000     0.43052    
C180     C      0.256770000000     0.011580000000     0.311670000000     0.437405   
C181     C      0.253370000000     0.570720000000     0.504420000000     0.433963   
C182     C      0.254430000000     0.948570000000     0.999940000000     0.430121   
C183     C      0.251530000000     0.512690000000     0.442400000000     0.435197   
C184     C      0.256040000000     0.506600000000     0.061940000000     0.437835   
C185     C      0.995600000000     0.756500000000     0.043900000000     0.428297   
C186     C      0.495670000000     0.744940000000     0.424060000000     0.424865   
C187     C      0.055860000000     0.747470000000     0.984580000000     0.426571   
C188     C      0.434490000000     0.754050000000     0.984600000000     0.430095   
C189     C      0.253050000000     0.702830000000     0.499510000000     0.439344   
C190     C      0.240340000000     0.823350000000     0.482480000000     0.430105   
C191     C      0.186690000000     0.756280000000     0.984180000000     0.432844   
C192     C      0.306860000000     0.769550000000     0.997950000000     0.428422   
C193     C      0.384240000000     0.777090000000     0.464330000000    -0.00928934 
C194     C      0.383550000000     0.734250000000     0.006510000000     0.0151625  
C195     C      0.357140000000     0.794530000000     0.481330000000    -0.00957968 
C196     C      0.357850000000     0.753410000000     0.024580000000    -0.059038   
C197     C      0.338130000000     0.731190000000     0.045040000000     0.316948   
C198     C      0.104680000000     0.766930000000     0.009700000000    -0.00131713 
C199     C      0.106730000000     0.719400000000     0.473410000000     0.010026   
C200     C      0.134990000000     0.780130000000     0.995130000000    -0.0184494  
C201     C      0.138060000000     0.732290000000     0.458570000000    -0.0583526  
C202     C      0.158810000000     0.704310000000     0.448600000000     0.315287   
C203     C      0.278320000000     0.897280000000     0.981850000000    -0.00808072 
C204     C      0.230070000000     0.897780000000     0.017360000000     0.016091   
C205     C      0.261240000000     0.873230000000     0.459880000000    -0.0142134  
C206     C      0.212940000000     0.875340000000     0.494560000000    -0.0558062  
C207     C      0.186630000000     0.856490000000     0.010420000000     0.317171   
C208     C      0.281260000000     0.652750000000     0.986020000000    -0.0100989  
C209     C      0.243540000000     0.654680000000     0.032020000000     0.0137703  
C210     C      0.269120000000     0.619320000000     0.477460000000    -0.0121472  
C211     C      0.229380000000     0.622050000000     0.522320000000    -0.0590254  
C212     C      0.217780000000     0.604510000000     0.051460000000     0.314596   
C213     C      0.275880000000     0.532840000000     0.394000000000    -0.00622038 
C214     C      0.223910000000     0.000930000000     0.392550000000     0.0127913  
C215     C      0.265920000000     0.541540000000     0.360440000000    -0.00447135 
C216     C      0.236100000000     0.987980000000     0.360740000000    -0.0564244  
C217     C      0.256160000000     0.958240000000     0.365580000000     0.321454   
C218     C      0.230010000000     0.015510000000     0.112850000000    -0.0035479  
C219     C      0.279350000000     0.981300000000     0.108870000000     0.00985949 
C220     C      0.242960000000     0.530900000000     0.142610000000    -0.0119274  
C221     C      0.289270000000     0.492130000000     0.142360000000    -0.0587679  
C222     C      0.304840000000     0.964450000000     0.159690000000     0.316973   
C223     C      0.022500000000     0.758000000000     0.374030000000    -0.00728155 
C224     C      0.981510000000     0.714290000000     0.376570000000     0.0100162  
C225     C      0.512350000000     0.765570000000     0.339990000000    -0.0135656  
C226     C      0.467920000000     0.724810000000     0.344490000000    -0.0567999  
C227     C      0.952710000000     0.695970000000     0.328790000000     0.312807   
C228     C      0.006640000000     0.724000000000     0.121910000000    -0.00232332 
C229     C      0.463190000000     0.765990000000     0.122960000000     0.00912538 
C230     C      0.021350000000     0.740230000000     0.093150000000    -0.00901514 
C231     C      0.479710000000     0.783280000000     0.095090000000    -0.0579798  
C232     C      0.455570000000     0.802610000000     0.076610000000     0.31742    
C233     C      0.149990000000     0.971950000000     0.244520000000    -0.00841104 
C234     C      0.148250000000     0.523350000000     0.275600000000     0.00939974 
C235     C      0.117840000000     0.980230000000     0.229740000000    -0.00997389 
C236     C      0.114340000000     0.529910000000     0.263150000000    -0.0581142  
C237     C      0.094900000000     0.547550000000     0.287810000000     0.313756   
C238     C      0.395120000000     0.012090000000     0.217960000000    -0.0118808  
C239     C      0.393910000000     0.978180000000     0.267280000000     0.0120396  
C240     C      0.370110000000     0.534730000000     0.232760000000    -0.00948171 
C241     C      0.370210000000     0.501530000000     0.282120000000    -0.0545034  
C242     C      0.350060000000     0.485840000000     0.307520000000     0.313325   
C243     C      0.016930000000     0.853910000000     0.215460000000    -0.00542104 
C244     C      0.470150000000     0.854970000000     0.252850000000     0.0105238  
C245     C      0.030200000000     0.884260000000     0.231020000000    -0.0117001  
C246     C      0.485230000000     0.883430000000     0.270560000000    -0.0582969  
C247     C      0.459140000000     0.903220000000     0.285810000000     0.315807   
C248     C      0.484620000000     0.608320000000     0.266960000000    -0.010201   
C249     C      0.025440000000     0.607340000000     0.223270000000     0.0110822  
C250     C      0.463700000000     0.631070000000     0.247150000000    -0.012443   
C251     C      0.004440000000     0.630060000000     0.204020000000    -0.0484587  
C252     C      0.023500000000     0.649550000000     0.180550000000     0.311402   
C253     C      0.445170000000     0.495180000000     0.744220000000     0.435881   
C254     C      0.066530000000     0.997580000000     0.750170000000     0.430517   
C255     C      0.505340000000     0.556930000000     0.746380000000     0.436806   
C256     C      0.506170000000     0.934680000000     0.748090000000     0.432163   
C257     C      0.487710000000     0.745890000000     0.672350000000     0.429122   
C258     C      0.492060000000     0.739670000000     0.792770000000     0.425665   
C259     C      0.986340000000     0.681850000000     0.728450000000     0.4273     
C260     C      0.993340000000     0.803790000000     0.735440000000     0.423589   
C261     C      0.319390000000     0.514480000000     0.754050000000     0.434658   
C262     C      0.198420000000     0.504580000000     0.751760000000     0.428189   
C263     C      0.261280000000     0.008020000000     0.692100000000     0.430531   
C264     C      0.256770000000     0.011580000000     0.811670000000     0.437339   
C265     C      0.253370000000     0.570720000000     0.004420000000     0.434393   
C266     C      0.254430000000     0.948570000000     0.499930000000     0.432113   
C267     C      0.251530000000     0.512690000000     0.942400000000     0.435589   
C268     C      0.256040000000     0.506600000000     0.561930000000     0.437655   
C269     C      0.995600000000     0.756500000000     0.543900000000     0.42856    
C270     C      0.495670000000     0.744940000000     0.924060000000     0.424735   
C271     C      0.055860000000     0.747470000000     0.484580000000     0.426805   
C272     C      0.434490000000     0.754050000000     0.484600000000     0.430333   
C273     C      0.253050000000     0.702830000000     0.999510000000     0.435189   
C274     C      0.240340000000     0.823350000000     0.982480000000     0.427534   
C275     C      0.186690000000     0.756280000000     0.484180000000     0.435363   
C276     C      0.306860000000     0.769550000000     0.497950000000     0.43248    
C277     C      0.384240000000     0.777090000000     0.964330000000    -0.00890764 
C278     C      0.383550000000     0.734250000000     0.506510000000     0.0111503  
C279     C      0.357140000000     0.794530000000     0.981330000000    -0.0113424  
C280     C      0.357850000000     0.753410000000     0.524580000000    -0.0581771  
C281     C      0.338130000000     0.731190000000     0.545040000000     0.316448   
C282     C      0.104680000000     0.766930000000     0.509700000000    -0.00557789 
C283     C      0.106730000000     0.719400000000     0.973400000000     0.0102159  
C284     C      0.134990000000     0.780130000000     0.495130000000    -0.0136442  
C285     C      0.138060000000     0.732290000000     0.958570000000    -0.0587765  
C286     C      0.158810000000     0.704310000000     0.948600000000     0.315489   
C287     C      0.278320000000     0.897280000000     0.481850000000    -0.00824675 
C288     C      0.230070000000     0.897780000000     0.517360000000     0.0119961  
C289     C      0.261240000000     0.873230000000     0.959880000000    -0.0146168  
C290     C      0.212940000000     0.875340000000     0.994560000000    -0.0606915  
C291     C      0.186630000000     0.856490000000     0.510420000000     0.311861   
C292     C      0.281260000000     0.652750000000     0.486020000000    -0.00630896 
C293     C      0.243540000000     0.654680000000     0.532020000000     0.0139516  
C294     C      0.269120000000     0.619320000000     0.977460000000    -0.0126674  
C295     C      0.229380000000     0.622050000000     0.022320000000    -0.0587824  
C296     C      0.217780000000     0.604510000000     0.551450000000     0.314509   
C297     C      0.275880000000     0.532840000000     0.894000000000    -0.00617812 
C298     C      0.223910000000     0.000930000000     0.892550000000     0.012825   
C299     C      0.265920000000     0.541540000000     0.860440000000    -0.00449365 
C300     C      0.236100000000     0.987980000000     0.860740000000    -0.0564544  
C301     C      0.256160000000     0.958240000000     0.865580000000     0.32148    
C302     C      0.230010000000     0.015510000000     0.612850000000    -0.00355662 
C303     C      0.279350000000     0.981300000000     0.608870000000     0.00985311 
C304     C      0.242960000000     0.530900000000     0.642610000000    -0.0119315  
C305     C      0.289270000000     0.492130000000     0.642360000000    -0.0587741  
C306     C      0.304840000000     0.964450000000     0.659690000000     0.316952   
C307     C      0.022500000000     0.758000000000     0.874030000000    -0.00728803 
C308     C      0.981510000000     0.714290000000     0.876570000000     0.0100235  
C309     C      0.512350000000     0.765570000000     0.839990000000    -0.0135618  
C310     C      0.467920000000     0.724810000000     0.844490000000    -0.0568036  
C311     C      0.952710000000     0.695970000000     0.828790000000     0.312801   
C312     C      0.006640000000     0.724000000000     0.621910000000    -0.00226656 
C313     C      0.463190000000     0.765990000000     0.622960000000     0.00915606 
C314     C      0.021350000000     0.740230000000     0.593150000000    -0.00898919 
C315     C      0.479710000000     0.783280000000     0.595090000000    -0.0580175  
C316     C      0.455570000000     0.802610000000     0.576610000000     0.31738    
C317     C      0.149990000000     0.971950000000     0.744520000000    -0.0084122  
C318     C      0.148250000000     0.523350000000     0.775600000000     0.00941966 
C319     C      0.117840000000     0.980230000000     0.729740000000    -0.00996513 
C320     C      0.114340000000     0.529910000000     0.763150000000    -0.0581533  
C321     C      0.094900000000     0.547550000000     0.787810000000     0.313847   
C322     C      0.395120000000     0.012090000000     0.717960000000    -0.0119039  
C323     C      0.393910000000     0.978180000000     0.767280000000     0.0120409  
C324     C      0.370110000000     0.534730000000     0.732770000000    -0.00940181 
C325     C      0.370210000000     0.501530000000     0.782120000000    -0.0545001  
C326     C      0.350060000000     0.485840000000     0.807520000000     0.313321   
C327     C      0.016930000000     0.853910000000     0.715460000000    -0.00541033 
C328     C      0.470150000000     0.854970000000     0.752860000000     0.0104813  
C329     C      0.030200000000     0.884260000000     0.731020000000    -0.0116609  
C330     C      0.485230000000     0.883430000000     0.770560000000    -0.0583166  
C331     C      0.459140000000     0.903220000000     0.785810000000     0.315812   
C332     C      0.484620000000     0.608320000000     0.766960000000    -0.0101929  
C333     C      0.025440000000     0.607340000000     0.723270000000     0.0110797  
C334     C      0.463700000000     0.631070000000     0.747150000000    -0.0124403  
C335     C      0.004440000000     0.630060000000     0.704020000000    -0.0484258  
C336     C      0.023500000000     0.649550000000     0.680550000000     0.311391   
C337     C      0.945170000000     0.995170000000     0.244220000000     0.436519   
C338     C      0.566530000000     0.497580000000     0.250170000000     0.430143   
C339     C      0.005340000000     0.056930000000     0.246380000000     0.43747    
C340     C      0.006170000000     0.434680000000     0.248090000000     0.432694   
C341     C      0.987710000000     0.245890000000     0.172360000000     0.424316   
C342     C      0.992060000000     0.239670000000     0.292770000000     0.420913   
C343     C      0.486340000000     0.181850000000     0.228450000000     0.432167   
C344     C      0.493350000000     0.303790000000     0.235440000000     0.42864    
C345     C      0.819390000000     0.014480000000     0.254050000000     0.434628   
C346     C      0.698420000000     0.004580000000     0.251760000000     0.428213   
C347     C      0.761280000000     0.508020000000     0.192100000000     0.430532   
C348     C      0.756770000000     0.511580000000     0.311670000000     0.437434   
C349     C      0.753370000000     0.070720000000     0.504420000000     0.434043   
C350     C      0.754430000000     0.448570000000     0.999940000000     0.430396   
C351     C      0.751530000000     0.012690000000     0.442400000000     0.435212   
C352     C      0.756040000000     0.006600000000     0.061940000000     0.437848   
C353     C      0.495600000000     0.256500000000     0.043900000000     0.429145   
C354     C      0.995670000000     0.244940000000     0.424060000000     0.419075   
C355     C      0.555860000000     0.247470000000     0.984580000000     0.42741    
C356     C      0.934480000000     0.254050000000     0.984600000000     0.429625   
C357     C      0.753050000000     0.202830000000     0.499510000000     0.439303   
C358     C      0.740340000000     0.323350000000     0.482480000000     0.430109   
C359     C      0.686690000000     0.256280000000     0.984180000000     0.43282    
C360     C      0.806860000000     0.269550000000     0.997950000000     0.428401   
C361     C      0.884240000000     0.277090000000     0.464330000000    -0.00930297 
C362     C      0.883540000000     0.234250000000     0.006510000000     0.0151975  
C363     C      0.857140000000     0.294530000000     0.481330000000    -0.00954732 
C364     C      0.857850000000     0.253410000000     0.024580000000    -0.059024   
C365     C      0.838130000000     0.231190000000     0.045040000000     0.316862   
C366     C      0.604680000000     0.266930000000     0.009700000000    -0.00118714 
C367     C      0.606730000000     0.219400000000     0.473410000000     0.0101274  
C368     C      0.634990000000     0.280130000000     0.995130000000    -0.0185303  
C369     C      0.638060000000     0.232290000000     0.458570000000    -0.0584095  
C370     C      0.658810000000     0.204310000000     0.448600000000     0.315251   
C371     C      0.778320000000     0.397280000000     0.981850000000    -0.00804633 
C372     C      0.730070000000     0.397780000000     0.017360000000     0.0161556  
C373     C      0.761240000000     0.373230000000     0.459880000000    -0.0142159  
C374     C      0.712940000000     0.375340000000     0.494560000000    -0.0558248  
C375     C      0.686630000000     0.356490000000     0.010420000000     0.317221   
C376     C      0.781260000000     0.152750000000     0.986020000000    -0.010122   
C377     C      0.743550000000     0.154680000000     0.032020000000     0.0138117  
C378     C      0.769120000000     0.119310000000     0.477460000000    -0.0121397  
C379     C      0.729380000000     0.122050000000     0.522320000000    -0.0590399  
C380     C      0.717780000000     0.104510000000     0.051460000000     0.314597   
C381     C      0.775880000000     0.032840000000     0.394000000000    -0.00620407 
C382     C      0.723910000000     0.500930000000     0.392550000000     0.0128647  
C383     C      0.765920000000     0.041540000000     0.360440000000    -0.00446714 
C384     C      0.736100000000     0.487980000000     0.360740000000    -0.0564729  
C385     C      0.756160000000     0.458240000000     0.365580000000     0.321478   
C386     C      0.730010000000     0.515510000000     0.112850000000    -0.0035043  
C387     C      0.779350000000     0.481300000000     0.108870000000     0.00986935 
C388     C      0.742960000000     0.030900000000     0.142610000000    -0.0119196  
C389     C      0.789270000000     0.992130000000     0.142360000000    -0.0587359  
C390     C      0.804840000000     0.464450000000     0.159690000000     0.316944   
C391     C      0.522500000000     0.258000000000     0.374030000000    -0.00828268 
C392     C      0.481510000000     0.214290000000     0.376570000000     0.0103955  
C393     C      0.012340000000     0.265570000000     0.339990000000    -0.00597674 
C394     C      0.967920000000     0.224810000000     0.344490000000    -0.0571259  
C395     C      0.452710000000     0.195970000000     0.328790000000     0.312777   
C396     C      0.506640000000     0.224000000000     0.121910000000    -0.00982321 
C397     C      0.963190000000     0.265990000000     0.122960000000     0.00888126 
C398     C      0.521350000000     0.240230000000     0.093150000000    -0.010274   
C399     C      0.979710000000     0.283280000000     0.095090000000    -0.0582486  
C400     C      0.955570000000     0.302610000000     0.076610000000     0.317504   
C401     C      0.649990000000     0.471950000000     0.244520000000    -0.00841068 
C402     C      0.648250000000     0.023350000000     0.275600000000     0.00945165 
C403     C      0.617840000000     0.480230000000     0.229740000000    -0.00999389 
C404     C      0.614340000000     0.029910000000     0.263150000000    -0.0582132  
C405     C      0.594900000000     0.047550000000     0.287810000000     0.313776   
C406     C      0.895120000000     0.512090000000     0.217960000000    -0.0118267  
C407     C      0.893910000000     0.478180000000     0.267280000000     0.0120485  
C408     C      0.870110000000     0.034730000000     0.232760000000    -0.00947458 
C409     C      0.870210000000     0.001530000000     0.282120000000    -0.0545391  
C410     C      0.850060000000     0.985840000000     0.307520000000     0.313321   
C411     C      0.516930000000     0.353910000000     0.215460000000    -0.00850914 
C412     C      0.970150000000     0.354970000000     0.252850000000     0.0119721  
C413     C      0.530200000000     0.384260000000     0.231020000000    -0.0110976  
C414     C      0.985240000000     0.383430000000     0.270560000000    -0.0660696  
C415     C      0.959140000000     0.403220000000     0.285810000000     0.317165   
C416     C      0.984610000000     0.108320000000     0.266960000000    -0.0134997  
C417     C      0.525440000000     0.107340000000     0.223270000000     0.0127393  
C418     C      0.963700000000     0.131070000000     0.247150000000    -0.0119884  
C419     C      0.504440000000     0.130060000000     0.204020000000    -0.0561887  
C420     C      0.523500000000     0.149550000000     0.180550000000     0.31312    
C421     C      0.945170000000     0.995170000000     0.744220000000     0.43653    
C422     C      0.566530000000     0.497580000000     0.750170000000     0.430149   
C423     C      0.005340000000     0.056930000000     0.746380000000     0.437483   
C424     C      0.006170000000     0.434680000000     0.748090000000     0.432709   
C425     C      0.987710000000     0.245890000000     0.672350000000     0.424208   
C426     C      0.992060000000     0.239670000000     0.792770000000     0.420901   
C427     C      0.486340000000     0.181850000000     0.728450000000     0.432171   
C428     C      0.493350000000     0.303790000000     0.735440000000     0.428642   
C429     C      0.819390000000     0.014480000000     0.754050000000     0.434642   
C430     C      0.698420000000     0.004580000000     0.751760000000     0.428173   
C431     C      0.761280000000     0.508020000000     0.692100000000     0.430543   
C432     C      0.756770000000     0.511580000000     0.811670000000     0.437368   
C433     C      0.753370000000     0.070720000000     0.004420000000     0.434477   
C434     C      0.754430000000     0.448570000000     0.499930000000     0.432406   
C435     C      0.751530000000     0.012690000000     0.942400000000     0.435607   
C436     C      0.756040000000     0.006600000000     0.561930000000     0.437667   
C437     C      0.495600000000     0.256500000000     0.543900000000     0.429407   
C438     C      0.995670000000     0.244940000000     0.924060000000     0.418931   
C439     C      0.555860000000     0.247470000000     0.484580000000     0.427642   
C440     C      0.934480000000     0.254050000000     0.484600000000     0.429864   
C441     C      0.753050000000     0.202830000000     0.999510000000     0.435113   
C442     C      0.740340000000     0.323350000000     0.982480000000     0.427515   
C443     C      0.686690000000     0.256280000000     0.484180000000     0.435365   
C444     C      0.806860000000     0.269550000000     0.497950000000     0.432491   
C445     C      0.884240000000     0.277090000000     0.964330000000    -0.00891839 
C446     C      0.883540000000     0.234250000000     0.506510000000     0.0111544  
C447     C      0.857140000000     0.294530000000     0.981330000000    -0.011323   
C448     C      0.857850000000     0.253410000000     0.524580000000    -0.0581555  
C449     C      0.838130000000     0.231190000000     0.545040000000     0.316358   
C450     C      0.604680000000     0.266930000000     0.509700000000    -0.00549963 
C451     C      0.606730000000     0.219400000000     0.973400000000     0.01032    
C452     C      0.634990000000     0.280130000000     0.495130000000    -0.0136701  
C453     C      0.638060000000     0.232290000000     0.958570000000    -0.0588381  
C454     C      0.658810000000     0.204310000000     0.948600000000     0.315455   
C455     C      0.778320000000     0.397280000000     0.481850000000    -0.00821356 
C456     C      0.730070000000     0.397780000000     0.517360000000     0.0120225  
C457     C      0.761240000000     0.373230000000     0.959880000000    -0.0146224  
C458     C      0.712940000000     0.375340000000     0.994560000000    -0.0607566  
C459     C      0.686630000000     0.356490000000     0.510420000000     0.311857   
C460     C      0.781260000000     0.152750000000     0.486020000000    -0.00630098 
C461     C      0.743550000000     0.154680000000     0.532020000000     0.0139941  
C462     C      0.769120000000     0.119310000000     0.977460000000    -0.0126662  
C463     C      0.729380000000     0.122050000000     0.022320000000    -0.0587953  
C464     C      0.717780000000     0.104510000000     0.551450000000     0.31451    
C465     C      0.775880000000     0.032840000000     0.894000000000    -0.00616147 
C466     C      0.723910000000     0.500930000000     0.892550000000     0.0128983  
C467     C      0.765920000000     0.041540000000     0.860440000000    -0.00448955 
C468     C      0.736100000000     0.487980000000     0.860740000000    -0.0565027  
C469     C      0.756160000000     0.458240000000     0.865580000000     0.321504   
C470     C      0.730010000000     0.515510000000     0.612850000000    -0.00351313 
C471     C      0.779350000000     0.481300000000     0.608870000000     0.00986317 
C472     C      0.742960000000     0.030900000000     0.642610000000    -0.0119237  
C473     C      0.789270000000     0.992130000000     0.642360000000    -0.0587426  
C474     C      0.804840000000     0.464450000000     0.659690000000     0.316923   
C475     C      0.522500000000     0.258000000000     0.874030000000    -0.00829102 
C476     C      0.481510000000     0.214290000000     0.876570000000     0.0104039  
C477     C      0.012340000000     0.265570000000     0.839990000000    -0.00594877 
C478     C      0.967920000000     0.224810000000     0.844490000000    -0.0571304  
C479     C      0.452710000000     0.195970000000     0.828790000000     0.312771   
C480     C      0.506640000000     0.224000000000     0.621910000000    -0.00981445 
C481     C      0.963190000000     0.265990000000     0.622960000000     0.00891059 
C482     C      0.521350000000     0.240230000000     0.593150000000    -0.0102595  
C483     C      0.979710000000     0.283280000000     0.595090000000    -0.0582882  
C484     C      0.955570000000     0.302610000000     0.576610000000     0.317464   
C485     C      0.649990000000     0.471950000000     0.744520000000    -0.0084117  
C486     C      0.648250000000     0.023350000000     0.775600000000     0.00947173 
C487     C      0.617840000000     0.480230000000     0.729740000000    -0.00998487 
C488     C      0.614340000000     0.029910000000     0.763150000000    -0.0582524  
C489     C      0.594900000000     0.047550000000     0.787810000000     0.313868   
C490     C      0.895120000000     0.512090000000     0.717960000000    -0.01185    
C491     C      0.893910000000     0.478180000000     0.767280000000     0.0120501  
C492     C      0.870110000000     0.034730000000     0.732770000000    -0.00939482 
C493     C      0.870210000000     0.001530000000     0.782120000000    -0.0545351  
C494     C      0.850060000000     0.985840000000     0.807520000000     0.313317   
C495     C      0.516930000000     0.353910000000     0.715460000000    -0.0085117  
C496     C      0.970150000000     0.354970000000     0.752860000000     0.0119364  
C497     C      0.530200000000     0.384260000000     0.731020000000    -0.0110558  
C498     C      0.985240000000     0.383430000000     0.770560000000    -0.0661194  
C499     C      0.959140000000     0.403220000000     0.785810000000     0.317175   
C500     C      0.984610000000     0.108320000000     0.766960000000    -0.0135055  
C501     C      0.525440000000     0.107340000000     0.723270000000     0.0127452  
C502     C      0.963700000000     0.131070000000     0.747150000000    -0.0119833  
C503     C      0.504440000000     0.130060000000     0.704020000000    -0.0561944  
C504     C      0.523500000000     0.149550000000     0.680550000000     0.313119   
C505     C      0.945170000000     0.495180000000     0.244220000000     0.436507   
C506     C      0.566530000000     0.997580000000     0.250170000000     0.430161   
C507     C      0.005340000000     0.556930000000     0.246380000000     0.437465   
C508     C      0.006170000000     0.934680000000     0.248090000000     0.432692   
C509     C      0.987710000000     0.745890000000     0.172360000000     0.424316   
C510     C      0.992060000000     0.739670000000     0.292770000000     0.420914   
C511     C      0.486340000000     0.681850000000     0.228450000000     0.432167   
C512     C      0.493350000000     0.803790000000     0.235440000000     0.42864    
C513     C      0.819390000000     0.514480000000     0.254050000000     0.434653   
C514     C      0.698420000000     0.504580000000     0.251760000000     0.428236   
C515     C      0.761280000000     0.008020000000     0.192100000000     0.43051    
C516     C      0.756770000000     0.011580000000     0.311670000000     0.437412   
C517     C      0.753370000000     0.570720000000     0.504420000000     0.433988   
C518     C      0.754430000000     0.948570000000     0.999940000000     0.430385   
C519     C      0.751530000000     0.512690000000     0.442400000000     0.435224   
C520     C      0.756040000000     0.506600000000     0.061940000000     0.43786    
C521     C      0.495600000000     0.756500000000     0.043900000000     0.429145   
C522     C      0.995670000000     0.744940000000     0.424060000000     0.419076   
C523     C      0.555860000000     0.747470000000     0.984580000000     0.42741    
C524     C      0.934480000000     0.754050000000     0.984600000000     0.429625   
C525     C      0.753050000000     0.702830000000     0.499510000000     0.439303   
C526     C      0.740340000000     0.823350000000     0.482480000000     0.430109   
C527     C      0.686690000000     0.756280000000     0.984180000000     0.43282    
C528     C      0.806860000000     0.769550000000     0.997950000000     0.428401   
C529     C      0.884240000000     0.777090000000     0.464330000000    -0.009303   
C530     C      0.883540000000     0.734250000000     0.006510000000     0.0151978  
C531     C      0.857140000000     0.794530000000     0.481330000000    -0.00954746 
C532     C      0.857850000000     0.753410000000     0.024580000000    -0.0590241  
C533     C      0.838130000000     0.731190000000     0.045040000000     0.316862   
C534     C      0.604680000000     0.766930000000     0.009700000000    -0.00118682 
C535     C      0.606730000000     0.719400000000     0.473410000000     0.0101273  
C536     C      0.634990000000     0.780130000000     0.995130000000    -0.0185308  
C537     C      0.638060000000     0.732290000000     0.458570000000    -0.0584095  
C538     C      0.658810000000     0.704310000000     0.448600000000     0.315251   
C539     C      0.778320000000     0.897280000000     0.981850000000    -0.00804732 
C540     C      0.730070000000     0.897780000000     0.017360000000     0.0161557  
C541     C      0.761240000000     0.873230000000     0.459880000000    -0.0142155  
C542     C      0.712940000000     0.875340000000     0.494560000000    -0.0558247  
C543     C      0.686630000000     0.856490000000     0.010420000000     0.317222   
C544     C      0.781260000000     0.652750000000     0.986020000000    -0.0101191  
C545     C      0.743550000000     0.654680000000     0.032020000000     0.0138115  
C546     C      0.769120000000     0.619320000000     0.477460000000    -0.0121423  
C547     C      0.729380000000     0.622050000000     0.522320000000    -0.0590408  
C548     C      0.717780000000     0.604510000000     0.051460000000     0.314597   
C549     C      0.775880000000     0.532840000000     0.394000000000    -0.00620062 
C550     C      0.723910000000     0.000930000000     0.392550000000     0.0128213  
C551     C      0.765920000000     0.541540000000     0.360440000000    -0.00446803 
C552     C      0.736100000000     0.987980000000     0.360740000000    -0.0564362  
C553     C      0.756160000000     0.958240000000     0.365580000000     0.32147    
C554     C      0.730010000000     0.015510000000     0.112850000000    -0.00352966 
C555     C      0.779350000000     0.981300000000     0.108870000000     0.00987456 
C556     C      0.742960000000     0.530900000000     0.142610000000    -0.0119252  
C557     C      0.789270000000     0.492130000000     0.142360000000    -0.0587691  
C558     C      0.804840000000     0.964450000000     0.159690000000     0.316938   
C559     C      0.522500000000     0.758000000000     0.374030000000    -0.00828297 
C560     C      0.481510000000     0.714290000000     0.376570000000     0.0103919  
C561     C      0.012340000000     0.765570000000     0.339990000000    -0.00597724 
C562     C      0.967920000000     0.724810000000     0.344490000000    -0.0571151  
C563     C      0.452710000000     0.695970000000     0.328790000000     0.312766   
C564     C      0.506640000000     0.724000000000     0.121910000000    -0.00982329 
C565     C      0.963190000000     0.765990000000     0.122960000000     0.0088812  
C566     C      0.521350000000     0.740230000000     0.093150000000    -0.0102741  
C567     C      0.979710000000     0.783280000000     0.095090000000    -0.0582486  
C568     C      0.955570000000     0.802610000000     0.076610000000     0.317504   
C569     C      0.649990000000     0.971950000000     0.244520000000    -0.00839901 
C570     C      0.648250000000     0.523350000000     0.275600000000     0.00944047 
C571     C      0.617840000000     0.980230000000     0.229740000000    -0.00998384 
C572     C      0.614340000000     0.529910000000     0.263150000000    -0.0581693  
C573     C      0.594900000000     0.547550000000     0.287810000000     0.313762   
C574     C      0.895120000000     0.012090000000     0.217960000000    -0.0118533  
C575     C      0.893910000000     0.978180000000     0.267280000000     0.0120682  
C576     C      0.870110000000     0.534730000000     0.232760000000    -0.00947895 
C577     C      0.870210000000     0.501530000000     0.282120000000    -0.0544987  
C578     C      0.850060000000     0.485840000000     0.307520000000     0.313272   
C579     C      0.516930000000     0.853910000000     0.215460000000    -0.00850923 
C580     C      0.970150000000     0.854970000000     0.252850000000     0.0119723  
C581     C      0.530200000000     0.884260000000     0.231020000000    -0.0110978  
C582     C      0.985240000000     0.883430000000     0.270560000000    -0.0660703  
C583     C      0.959140000000     0.903220000000     0.285810000000     0.317166   
C584     C      0.984610000000     0.608320000000     0.266960000000    -0.0135007  
C585     C      0.525440000000     0.607340000000     0.223270000000     0.0127388  
C586     C      0.963700000000     0.631070000000     0.247150000000    -0.0119877  
C587     C      0.504440000000     0.630060000000     0.204020000000    -0.0561886  
C588     C      0.523500000000     0.649550000000     0.180550000000     0.31312    
C589     C      0.945170000000     0.495180000000     0.744220000000     0.436519   
C590     C      0.566530000000     0.997580000000     0.750170000000     0.430167   
C591     C      0.005340000000     0.556930000000     0.746380000000     0.437477   
C592     C      0.006170000000     0.934680000000     0.748090000000     0.432708   
C593     C      0.987710000000     0.745890000000     0.672350000000     0.424208   
C594     C      0.992060000000     0.739670000000     0.792770000000     0.420902   
C595     C      0.486340000000     0.681850000000     0.728450000000     0.432171   
C596     C      0.493350000000     0.803790000000     0.735440000000     0.428641   
C597     C      0.819390000000     0.514480000000     0.754050000000     0.434666   
C598     C      0.698420000000     0.504580000000     0.751760000000     0.428196   
C599     C      0.761280000000     0.008020000000     0.692100000000     0.430521   
C600     C      0.756770000000     0.011580000000     0.811670000000     0.437346   
C601     C      0.753370000000     0.570720000000     0.004420000000     0.434422   
C602     C      0.754430000000     0.948570000000     0.499930000000     0.432395   
C603     C      0.751530000000     0.512690000000     0.942400000000     0.435619   
C604     C      0.756040000000     0.506600000000     0.561930000000     0.437679   
C605     C      0.495600000000     0.756500000000     0.543900000000     0.429407   
C606     C      0.995670000000     0.744940000000     0.924060000000     0.418932   
C607     C      0.555860000000     0.747470000000     0.484580000000     0.427642   
C608     C      0.934480000000     0.754050000000     0.484600000000     0.429864   
C609     C      0.753050000000     0.702830000000     0.999510000000     0.435113   
C610     C      0.740340000000     0.823350000000     0.982480000000     0.427515   
C611     C      0.686690000000     0.756280000000     0.484180000000     0.435365   
C612     C      0.806860000000     0.769550000000     0.497950000000     0.432491   
C613     C      0.884240000000     0.777090000000     0.964330000000    -0.00891839 
C614     C      0.883540000000     0.734250000000     0.506510000000     0.0111543  
C615     C      0.857140000000     0.794530000000     0.981330000000    -0.0113233  
C616     C      0.857850000000     0.753410000000     0.524580000000    -0.0581556  
C617     C      0.838130000000     0.731190000000     0.545040000000     0.316358   
C618     C      0.604680000000     0.766930000000     0.509700000000    -0.00549968 
C619     C      0.606730000000     0.719400000000     0.973400000000     0.0103199  
C620     C      0.634990000000     0.780130000000     0.495130000000    -0.0136702  
C621     C      0.638060000000     0.732290000000     0.958570000000    -0.0588382  
C622     C      0.658810000000     0.704310000000     0.948600000000     0.315455   
C623     C      0.778320000000     0.897280000000     0.481850000000    -0.00821457 
C624     C      0.730070000000     0.897780000000     0.517360000000     0.0120221  
C625     C      0.761240000000     0.873230000000     0.959880000000    -0.0146221  
C626     C      0.712940000000     0.875340000000     0.994560000000    -0.060757   
C627     C      0.686630000000     0.856490000000     0.510420000000     0.311857   
C628     C      0.781260000000     0.652750000000     0.486020000000    -0.00629726 
C629     C      0.743550000000     0.654680000000     0.532020000000     0.0139939  
C630     C      0.769120000000     0.619320000000     0.977460000000    -0.0126673  
C631     C      0.729380000000     0.622050000000     0.022320000000    -0.0587961  
C632     C      0.717780000000     0.604510000000     0.551450000000     0.314511   
C633     C      0.775880000000     0.532840000000     0.894000000000    -0.00615805 
C634     C      0.723910000000     0.000930000000     0.892550000000     0.0128556  
C635     C      0.765920000000     0.541540000000     0.860440000000    -0.00449043 
C636     C      0.736100000000     0.987980000000     0.860740000000    -0.0564665  
C637     C      0.756160000000     0.958240000000     0.865580000000     0.321497   
C638     C      0.730010000000     0.015510000000     0.612850000000    -0.00353824 
C639     C      0.779350000000     0.981300000000     0.608870000000     0.00986833 
C640     C      0.742960000000     0.530900000000     0.642610000000    -0.0119293  
C641     C      0.789270000000     0.492130000000     0.642360000000    -0.0587755  
C642     C      0.804840000000     0.964450000000     0.659690000000     0.316916   
C643     C      0.522500000000     0.758000000000     0.874030000000    -0.0082913  
C644     C      0.481510000000     0.714290000000     0.876570000000     0.0104004  
C645     C      0.012340000000     0.765570000000     0.839990000000    -0.00594927 
C646     C      0.967920000000     0.724810000000     0.844490000000    -0.0571196  
C647     C      0.452710000000     0.695970000000     0.828790000000     0.31276    
C648     C      0.506640000000     0.724000000000     0.621910000000    -0.00981452 
C649     C      0.963190000000     0.765990000000     0.622960000000     0.00891053 
C650     C      0.521350000000     0.740230000000     0.593150000000    -0.0102596  
C651     C      0.979710000000     0.783280000000     0.595090000000    -0.0582881  
C652     C      0.955570000000     0.802610000000     0.576610000000     0.317464   
C653     C      0.649990000000     0.971950000000     0.744520000000    -0.00840016 
C654     C      0.648250000000     0.523350000000     0.775600000000     0.00946053 
C655     C      0.617840000000     0.980230000000     0.729740000000    -0.00997496 
C656     C      0.614340000000     0.529910000000     0.763150000000    -0.0582085  
C657     C      0.594900000000     0.547550000000     0.787810000000     0.313854   
C658     C      0.895120000000     0.012090000000     0.717960000000    -0.0118761  
C659     C      0.893910000000     0.978180000000     0.767280000000     0.0120695  
C660     C      0.870110000000     0.534730000000     0.732770000000    -0.00939913 
C661     C      0.870210000000     0.501530000000     0.782120000000    -0.0544953  
C662     C      0.850060000000     0.485840000000     0.807520000000     0.313268   
C663     C      0.516930000000     0.853910000000     0.715460000000    -0.00851179 
C664     C      0.970150000000     0.854970000000     0.752860000000     0.0119365  
C665     C      0.530200000000     0.884260000000     0.731020000000    -0.011056   
C666     C      0.985240000000     0.883430000000     0.770560000000    -0.0661202  
C667     C      0.959140000000     0.903220000000     0.785810000000     0.317176   
C668     C      0.984610000000     0.608320000000     0.766960000000    -0.0135065  
C669     C      0.525440000000     0.607340000000     0.723270000000     0.0127448  
C670     C      0.963700000000     0.631070000000     0.747150000000    -0.0119826  
C671     C      0.504440000000     0.630060000000     0.704020000000    -0.0561944  
C672     C      0.523500000000     0.649550000000     0.680550000000     0.313119   
H1       H      0.367980000000     0.313460000000     0.496420000000     0.0426744  
H2       H      0.400000000000     0.294970000000     0.452630000000     0.047371   
H3       H      0.370590000000     0.270450000000     0.040300000000     0.0697873  
H4       H      0.341590000000     0.306770000000     0.463750000000     0.0425263  
H5       H      0.373510000000     0.262010000000     0.445460000000     0.0469431  
H6       H      0.371780000000     0.215840000000     0.991470000000     0.0508283  
H7       H      0.399230000000     0.221680000000     0.023750000000     0.0508745  
H8       H      0.312970000000     0.189600000000     0.045650000000     0.187545   
H9       H      0.128140000000     0.297530000000     0.476430000000     0.0603022  
H10      H      0.089440000000     0.287180000000     0.017820000000     0.0482671  
H11      H      0.131340000000     0.246210000000     0.437170000000     0.0703362  
H12      H      0.148220000000     0.293510000000     0.013620000000     0.059738   
H13      H      0.111350000000     0.252660000000     0.030870000000     0.0437284  
H14      H      0.112570000000     0.201990000000     0.992450000000     0.0522691  
H15      H      0.092630000000     0.206550000000     0.455070000000     0.0454505  
H16      H      0.178660000000     0.182120000000     0.410750000000     0.186505   
H17      H      0.249410000000     0.386950000000     0.440660000000     0.0534601  
H18      H      0.294070000000     0.413050000000     0.467500000000     0.0468498  
H19      H      0.201350000000     0.391240000000     0.476770000000     0.0696588  
H20      H      0.279210000000     0.356870000000     0.449110000000     0.0444037  
H21      H      0.293480000000     0.383510000000     0.998590000000     0.045076   
H22      H      0.242120000000     0.383130000000     0.035790000000     0.055856   
H23      H      0.212570000000     0.413720000000     0.029390000000     0.0480832  
H24      H      0.173640000000     0.333360000000     0.050640000000     0.180843   
H25      H      0.251520000000     0.121860000000     0.457980000000     0.0458116  
H26      H      0.288440000000     0.165580000000     0.464150000000     0.0501555  
H27      H      0.208550000000     0.126810000000     0.506680000000     0.079668   
H28      H      0.289330000000     0.104740000000     0.468190000000     0.0441113  
H29      H      0.303070000000     0.149750000000     0.000650000000     0.0515531  
H30      H      0.262740000000     0.150890000000     0.049780000000     0.0489929  
H31      H      0.224470000000     0.169490000000     0.043100000000     0.0510914  
H32      H      0.178320000000     0.087260000000     0.073490000000     0.183347   
H33      H      0.246560000000     0.059780000000     0.361330000000     0.0446982  
H34      H      0.282040000000     0.055190000000     0.407050000000     0.0405637  
H35      H      0.214860000000     0.480980000000     0.346450000000     0.0635309  
H36      H      0.286640000000     0.052510000000     0.348030000000     0.0547033  
H37      H      0.297830000000     0.017890000000     0.393390000000     0.0704092  
H38      H      0.212000000000     0.481390000000     0.406080000000     0.046837   
H39      H      0.205620000000     0.519710000000     0.387980000000     0.0419283  
H40      H      0.300790000000     0.441980000000     0.375300000000     0.180267   
H41      H      0.257870000000     0.051990000000     0.136080000000     0.0573003  
H42      H      0.215530000000     0.033630000000     0.099890000000     0.0522803  
H43      H      0.307890000000     0.010890000000     0.138980000000     0.0662716  
H44      H      0.222410000000     0.039560000000     0.156940000000     0.0477092  
H45      H      0.214220000000     0.495110000000     0.119400000000     0.0472915  
H46      H      0.267340000000     0.457520000000     0.110180000000     0.0509459  
H47      H      0.301160000000     0.477900000000     0.094240000000     0.0473928  
H48      H      0.344310000000     0.451150000000     0.184170000000     0.189987   
H49      H      0.497630000000     0.287800000000     0.340490000000     0.0444863  
H50      H      0.530100000000     0.280580000000     0.385840000000     0.0479358  
H51      H      0.449110000000     0.243130000000     0.349110000000     0.0688402  
H52      H      0.534030000000     0.271250000000     0.325890000000     0.0482592  
H53      H      0.043830000000     0.242130000000     0.373000000000     0.0457548  
H54      H      0.999300000000     0.194750000000     0.373080000000     0.0549511  
H55      H      0.961740000000     0.204720000000     0.391420000000     0.0458565  
H56      H      0.959340000000     0.149050000000     0.317900000000     0.178523   
H57      H      0.040510000000     0.256610000000     0.101570000000     0.0433464  
H58      H      0.026100000000     0.213400000000     0.136360000000     0.0563798  
H59      H      0.497400000000     0.300160000000     0.105570000000     0.0663251  
H60      H      0.032930000000     0.221790000000     0.078010000000     0.0487644  
H61      H      0.991300000000     0.204000000000     0.113450000000     0.0559109  
H62      H      0.444180000000     0.249900000000     0.113690000000     0.0567916  
H63      H      0.451860000000     0.284030000000     0.138770000000     0.0465585  
H64      H      0.416080000000     0.299940000000     0.049280000000     0.185905   
H65      H      0.122030000000     0.993730000000     0.207480000000     0.0478311  
H66      H      0.164450000000     0.458400000000     0.226990000000     0.0477731  
H67      H      0.117230000000     0.046230000000     0.242520000000     0.0646099  
H68      H      0.105120000000     0.457550000000     0.223770000000     0.0414067  
H69      H      0.145910000000     0.456200000000     0.265320000000     0.0491893  
H70      H      0.146650000000     0.511780000000     0.299200000000     0.0515381  
H71      H      0.160870000000     0.046610000000     0.278930000000     0.0469957  
H72      H      0.079440000000     0.046100000000     0.333200000000     0.186213   
H73      H      0.382880000000     0.055040000000     0.244180000000     0.0444564  
H74      H      0.411350000000     0.526320000000     0.202610000000     0.0476361  
H75      H      0.384900000000     0.020320000000     0.293920000000     0.064404   
H76      H      0.354510000000     0.544570000000     0.213840000000     0.0476092  
H77      H      0.382540000000     0.494290000000     0.203000000000     0.0566727  
H78      H      0.380420000000     0.458360000000     0.255800000000     0.0640204  
H79      H      0.409170000000     0.967500000000     0.286000000000     0.0595865  
H80      H      0.330080000000     0.943840000000     0.321900000000     0.19065    
H81      H      0.049050000000     0.376830000000     0.247990000000     0.0439665  
H82      H      0.037100000000     0.338570000000     0.207480000000     0.046224   
H83      H      0.500790000000     0.373370000000     0.289420000000     0.0684888  
H84      H      0.041900000000     0.399490000000     0.212800000000     0.0439476  
H85      H      0.003480000000     0.361270000000     0.194040000000     0.0473185  
H86      H      0.452920000000     0.364040000000     0.234970000000     0.0557312  
H87      H      0.456810000000     0.339760000000     0.269980000000     0.0463995  
H88      H      0.444300000000     0.422630000000     0.327210000000     0.18535    
H89      H      0.446670000000     0.116330000000     0.233170000000     0.0457708  
H90      H      0.468970000000     0.092680000000     0.281570000000     0.0442369  
H91      H      0.488240000000     0.114220000000     0.190130000000     0.0671626  
H92      H      0.449670000000     0.147040000000     0.262930000000     0.0493428  
H93      H      0.999750000000     0.123000000000     0.282950000000     0.0552224  
H94      H      0.043070000000     0.121810000000     0.236800000000     0.0652449  
H95      H      0.038990000000     0.091040000000     0.207340000000     0.0510187  
H96      H      0.064940000000     0.173850000000     0.173470000000     0.181187   
H97      H      0.367980000000     0.313460000000     0.996420000000     0.0424245  
H98      H      0.400000000000     0.294970000000     0.952630000000     0.0471929  
H99      H      0.370590000000     0.270450000000     0.540300000000     0.0693056  
H100     H      0.341590000000     0.306770000000     0.963760000000     0.0427923  
H101     H      0.373510000000     0.262010000000     0.945460000000     0.0467425  
H102     H      0.371780000000     0.215840000000     0.491470000000     0.0529374  
H103     H      0.399230000000     0.221680000000     0.523750000000     0.0511918  
H104     H      0.312970000000     0.189600000000     0.545650000000     0.187498   
H105     H      0.128140000000     0.297530000000     0.976420000000     0.0610503  
H106     H      0.089440000000     0.287180000000     0.517810000000     0.0485363  
H107     H      0.131340000000     0.246210000000     0.937170000000     0.0704397  
H108     H      0.148220000000     0.293510000000     0.513620000000     0.0575033  
H109     H      0.111350000000     0.252660000000     0.530870000000     0.0441466  
H110     H      0.112570000000     0.201990000000     0.492450000000     0.0528254  
H111     H      0.092630000000     0.206550000000     0.955070000000     0.045317   
H112     H      0.178660000000     0.182120000000     0.910750000000     0.186443   
H113     H      0.249410000000     0.386950000000     0.940660000000     0.0535189  
H114     H      0.294070000000     0.413050000000     0.967500000000     0.0466916  
H115     H      0.201350000000     0.391240000000     0.976770000000     0.0703189  
H116     H      0.279210000000     0.356870000000     0.949110000000     0.0444394  
H117     H      0.293480000000     0.383510000000     0.498590000000     0.0456331  
H118     H      0.242120000000     0.383130000000     0.535790000000     0.0562689  
H119     H      0.212570000000     0.413720000000     0.529390000000     0.0486232  
H120     H      0.173640000000     0.333360000000     0.550640000000     0.180306   
H121     H      0.251520000000     0.121860000000     0.957980000000     0.0455448  
H122     H      0.288440000000     0.165580000000     0.964150000000     0.0507466  
H123     H      0.208550000000     0.126810000000     0.006680000000     0.0802463  
H124     H      0.289330000000     0.104740000000     0.968190000000     0.0436342  
H125     H      0.303070000000     0.149750000000     0.500640000000     0.0494418  
H126     H      0.262740000000     0.150890000000     0.549790000000     0.0488417  
H127     H      0.224470000000     0.169490000000     0.543100000000     0.0508081  
H128     H      0.178320000000     0.087260000000     0.573490000000     0.183265   
H129     H      0.246560000000     0.059780000000     0.861330000000     0.044653   
H130     H      0.282040000000     0.055190000000     0.907050000000     0.0403962  
H131     H      0.214860000000     0.480980000000     0.846450000000     0.0635133  
H132     H      0.286640000000     0.052510000000     0.848030000000     0.0546769  
H133     H      0.297830000000     0.017890000000     0.893390000000     0.0703133  
H134     H      0.212000000000     0.481390000000     0.906070000000     0.0466888  
H135     H      0.205620000000     0.519710000000     0.887980000000     0.0418097  
H136     H      0.300790000000     0.441980000000     0.875300000000     0.180197   
H137     H      0.257870000000     0.051990000000     0.636090000000     0.0572858  
H138     H      0.215530000000     0.033630000000     0.599890000000     0.0522436  
H139     H      0.307890000000     0.010890000000     0.638980000000     0.0662254  
H140     H      0.222410000000     0.039560000000     0.656940000000     0.0476952  
H141     H      0.214220000000     0.495110000000     0.619400000000     0.0472363  
H142     H      0.267340000000     0.457520000000     0.610180000000     0.0508499  
H143     H      0.301160000000     0.477900000000     0.594240000000     0.0472242  
H144     H      0.344310000000     0.451150000000     0.684170000000     0.189963   
H145     H      0.497630000000     0.287800000000     0.840490000000     0.0444686  
H146     H      0.530100000000     0.280580000000     0.885830000000     0.0478934  
H147     H      0.449110000000     0.243130000000     0.849110000000     0.0688333  
H148     H      0.534030000000     0.271250000000     0.825890000000     0.048252   
H149     H      0.043830000000     0.242130000000     0.873000000000     0.045746   
H150     H      0.999300000000     0.194750000000     0.873080000000     0.054902   
H151     H      0.961740000000     0.204720000000     0.891420000000     0.0457951  
H152     H      0.959340000000     0.149050000000     0.817900000000     0.178498   
H153     H      0.040510000000     0.256610000000     0.601570000000     0.0432426  
H154     H      0.026100000000     0.213400000000     0.636360000000     0.0563249  
H155     H      0.497400000000     0.300160000000     0.605570000000     0.0662563  
H156     H      0.032930000000     0.221790000000     0.578010000000     0.0485291  
H157     H      0.991300000000     0.204000000000     0.613450000000     0.0557699  
H158     H      0.444180000000     0.249900000000     0.613690000000     0.0567208  
H159     H      0.451860000000     0.284030000000     0.638770000000     0.0465251  
H160     H      0.416080000000     0.299940000000     0.549280000000     0.185524   
H161     H      0.122030000000     0.993730000000     0.707480000000     0.0477957  
H162     H      0.164450000000     0.458400000000     0.726990000000     0.0477668  
H163     H      0.117230000000     0.046230000000     0.742520000000     0.0646033  
H164     H      0.105120000000     0.457550000000     0.723770000000     0.0413819  
H165     H      0.145910000000     0.456200000000     0.765320000000     0.0491766  
H166     H      0.146650000000     0.511780000000     0.799200000000     0.0515099  
H167     H      0.160870000000     0.046610000000     0.778930000000     0.0469812  
H168     H      0.079440000000     0.046100000000     0.833190000000     0.186268   
H169     H      0.382880000000     0.055040000000     0.744180000000     0.0444247  
H170     H      0.411350000000     0.526320000000     0.702610000000     0.0475964  
H171     H      0.384900000000     0.020320000000     0.793920000000     0.0643765  
H172     H      0.354510000000     0.544570000000     0.713840000000     0.047567   
H173     H      0.382540000000     0.494290000000     0.703000000000     0.0566466  
H174     H      0.380420000000     0.458360000000     0.755800000000     0.0640171  
H175     H      0.409170000000     0.967500000000     0.786000000000     0.0595688  
H176     H      0.330080000000     0.943840000000     0.821900000000     0.190644   
H177     H      0.049050000000     0.376830000000     0.747990000000     0.0439471  
H178     H      0.037100000000     0.338570000000     0.707480000000     0.0462037  
H179     H      0.500790000000     0.373370000000     0.789420000000     0.0684737  
H180     H      0.041900000000     0.399490000000     0.712800000000     0.0439088  
H181     H      0.003480000000     0.361270000000     0.694040000000     0.0472867  
H182     H      0.452920000000     0.364040000000     0.734980000000     0.0557358  
H183     H      0.456810000000     0.339760000000     0.769980000000     0.046407   
H184     H      0.444300000000     0.422630000000     0.827210000000     0.185297   
H185     H      0.446670000000     0.116330000000     0.733170000000     0.0457562  
H186     H      0.468970000000     0.092680000000     0.781570000000     0.0442131  
H187     H      0.488240000000     0.114220000000     0.690130000000     0.0671154  
H188     H      0.449670000000     0.147040000000     0.762930000000     0.0493399  
H189     H      0.999750000000     0.123000000000     0.782950000000     0.0552062  
H190     H      0.043070000000     0.121810000000     0.736800000000     0.0652415  
H191     H      0.038990000000     0.091040000000     0.707340000000     0.0509843  
H192     H      0.064940000000     0.173850000000     0.673470000000     0.181141   
H193     H      0.367980000000     0.813460000000     0.496420000000     0.042675   
H194     H      0.400000000000     0.794970000000     0.452630000000     0.0473715  
H195     H      0.370590000000     0.770450000000     0.040300000000     0.0697873  
H196     H      0.341590000000     0.806770000000     0.463750000000     0.0425266  
H197     H      0.373510000000     0.762010000000     0.445460000000     0.0469431  
H198     H      0.371780000000     0.715840000000     0.991470000000     0.0508279  
H199     H      0.399230000000     0.721680000000     0.023750000000     0.0508744  
H200     H      0.312970000000     0.689600000000     0.045650000000     0.187544   
H201     H      0.128140000000     0.797530000000     0.476430000000     0.0603024  
H202     H      0.089440000000     0.787180000000     0.017820000000     0.0482673  
H203     H      0.131340000000     0.746210000000     0.437170000000     0.0703362  
H204     H      0.148220000000     0.793510000000     0.013620000000     0.0597382  
H205     H      0.111350000000     0.752660000000     0.030870000000     0.0437283  
H206     H      0.112570000000     0.701990000000     0.992450000000     0.0522692  
H207     H      0.092630000000     0.706550000000     0.455070000000     0.0454506  
H208     H      0.178660000000     0.682120000000     0.410750000000     0.186505   
H209     H      0.249410000000     0.886950000000     0.440660000000     0.0534609  
H210     H      0.294070000000     0.913050000000     0.467500000000     0.0468525  
H211     H      0.201350000000     0.891240000000     0.476770000000     0.0696599  
H212     H      0.279210000000     0.856870000000     0.449110000000     0.044404   
H213     H      0.293480000000     0.883510000000     0.998590000000     0.0450771  
H214     H      0.242120000000     0.883130000000     0.035790000000     0.0558567  
H215     H      0.212570000000     0.913720000000     0.029390000000     0.0480852  
H216     H      0.173640000000     0.833360000000     0.050640000000     0.180843   
H217     H      0.251520000000     0.621860000000     0.457980000000     0.0458125  
H218     H      0.288440000000     0.665580000000     0.464150000000     0.0501546  
H219     H      0.208550000000     0.626810000000     0.506680000000     0.0796686  
H220     H      0.289330000000     0.604740000000     0.468190000000     0.0441054  
H221     H      0.303070000000     0.649750000000     0.000650000000     0.0515512  
H222     H      0.262740000000     0.650890000000     0.049780000000     0.0489923  
H223     H      0.224470000000     0.669490000000     0.043100000000     0.0510914  
H224     H      0.178320000000     0.587260000000     0.073490000000     0.183349   
H225     H      0.246560000000     0.559780000000     0.361330000000     0.0446985  
H226     H      0.282040000000     0.555190000000     0.407050000000     0.0405632  
H227     H      0.214860000000     0.980980000000     0.346450000000     0.0635291  
H228     H      0.286640000000     0.552510000000     0.348030000000     0.0547031  
H229     H      0.297830000000     0.517890000000     0.393390000000     0.0704116  
H230     H      0.212000000000     0.981390000000     0.406080000000     0.0468589  
H231     H      0.205620000000     0.019710000000     0.387980000000     0.0419342  
H232     H      0.300790000000     0.941980000000     0.375300000000     0.180267   
H233     H      0.257870000000     0.551990000000     0.136080000000     0.0573019  
H234     H      0.215530000000     0.533630000000     0.099890000000     0.0522768  
H235     H      0.307890000000     0.510890000000     0.138980000000     0.0662897  
H236     H      0.222410000000     0.539560000000     0.156940000000     0.0477125  
H237     H      0.214220000000     0.995110000000     0.119400000000     0.0473106  
H238     H      0.267340000000     0.957520000000     0.110180000000     0.0509477  
H239     H      0.301160000000     0.977900000000     0.094240000000     0.0473988  
H240     H      0.344310000000     0.951150000000     0.184170000000     0.189986   
H241     H      0.497630000000     0.787800000000     0.340490000000     0.0444867  
H242     H      0.530100000000     0.780580000000     0.385840000000     0.0479361  
H243     H      0.449110000000     0.743130000000     0.349110000000     0.0688436  
H244     H      0.534030000000     0.771250000000     0.325890000000     0.0482592  
H245     H      0.043830000000     0.742130000000     0.373000000000     0.0457548  
H246     H      0.999300000000     0.694750000000     0.373080000000     0.0549519  
H247     H      0.961740000000     0.704720000000     0.391420000000     0.0458572  
H248     H      0.959340000000     0.649050000000     0.317900000000     0.178518   
H249     H      0.040510000000     0.756610000000     0.101570000000     0.0433464  
H250     H      0.026100000000     0.713400000000     0.136360000000     0.0563799  
H251     H      0.497400000000     0.800160000000     0.105570000000     0.0663252  
H252     H      0.032930000000     0.721790000000     0.078010000000     0.0487644  
H253     H      0.991300000000     0.704000000000     0.113450000000     0.0559113  
H254     H      0.444180000000     0.749900000000     0.113690000000     0.0567915  
H255     H      0.451860000000     0.784030000000     0.138770000000     0.0465584  
H256     H      0.416080000000     0.799940000000     0.049280000000     0.185906   
H257     H      0.122030000000     0.493730000000     0.207480000000     0.0478277  
H258     H      0.164450000000     0.958400000000     0.226990000000     0.047773   
H259     H      0.117230000000     0.546240000000     0.242520000000     0.0645886  
H260     H      0.105120000000     0.957550000000     0.223770000000     0.0414058  
H261     H      0.145910000000     0.956200000000     0.265320000000     0.0491908  
H262     H      0.146650000000     0.011780000000     0.299200000000     0.0515323  
H263     H      0.160870000000     0.546610000000     0.278930000000     0.0469981  
H264     H      0.079440000000     0.546100000000     0.333200000000     0.186214   
H265     H      0.382880000000     0.555040000000     0.244180000000     0.0444541  
H266     H      0.411350000000     0.026320000000     0.202610000000     0.0476418  
H267     H      0.384900000000     0.520320000000     0.293920000000     0.0643965  
H268     H      0.354510000000     0.044570000000     0.213840000000     0.0476067  
H269     H      0.382540000000     0.994290000000     0.203000000000     0.056688   
H270     H      0.380420000000     0.958360000000     0.255800000000     0.0640147  
H271     H      0.409170000000     0.467500000000     0.286000000000     0.059593   
H272     H      0.330080000000     0.443840000000     0.321900000000     0.190645   
H273     H      0.049050000000     0.876830000000     0.247990000000     0.0439669  
H274     H      0.037100000000     0.838570000000     0.207480000000     0.046224   
H275     H      0.500790000000     0.873370000000     0.289420000000     0.0684897  
H276     H      0.041900000000     0.899490000000     0.212800000000     0.0439481  
H277     H      0.003480000000     0.861270000000     0.194040000000     0.0473184  
H278     H      0.452920000000     0.864040000000     0.234970000000     0.0557304  
H279     H      0.456810000000     0.839760000000     0.269980000000     0.0463998  
H280     H      0.444300000000     0.922630000000     0.327210000000     0.185351   
H281     H      0.446670000000     0.616330000000     0.233170000000     0.0457693  
H282     H      0.468970000000     0.592680000000     0.281570000000     0.0442355  
H283     H      0.488240000000     0.614220000000     0.190130000000     0.0671628  
H284     H      0.449670000000     0.647040000000     0.262930000000     0.04934    
H285     H      0.999750000000     0.623000000000     0.282950000000     0.0552228  
H286     H      0.043070000000     0.621810000000     0.236800000000     0.0652449  
H287     H      0.038990000000     0.591040000000     0.207340000000     0.0510202  
H288     H      0.064940000000     0.673850000000     0.173470000000     0.181187   
H289     H      0.367980000000     0.813460000000     0.996420000000     0.042425   
H290     H      0.400000000000     0.794970000000     0.952630000000     0.0471934  
H291     H      0.370590000000     0.770450000000     0.540300000000     0.0693056  
H292     H      0.341590000000     0.806770000000     0.963760000000     0.0427927  
H293     H      0.373510000000     0.762010000000     0.945460000000     0.0467426  
H294     H      0.371780000000     0.715840000000     0.491470000000     0.0529372  
H295     H      0.399230000000     0.721680000000     0.523750000000     0.0511918  
H296     H      0.312970000000     0.689600000000     0.545650000000     0.187497   
H297     H      0.128140000000     0.797530000000     0.976420000000     0.0610506  
H298     H      0.089440000000     0.787180000000     0.517810000000     0.0485365  
H299     H      0.131340000000     0.746210000000     0.937170000000     0.0704397  
H300     H      0.148220000000     0.793510000000     0.513620000000     0.0575034  
H301     H      0.111350000000     0.752660000000     0.530870000000     0.0441466  
H302     H      0.112570000000     0.701990000000     0.492450000000     0.0528255  
H303     H      0.092630000000     0.706550000000     0.955070000000     0.0453171  
H304     H      0.178660000000     0.682120000000     0.910750000000     0.186443   
H305     H      0.249410000000     0.886950000000     0.940660000000     0.0535197  
H306     H      0.294070000000     0.913050000000     0.967500000000     0.0466942  
H307     H      0.201350000000     0.891240000000     0.976770000000     0.0703201  
H308     H      0.279210000000     0.856870000000     0.949110000000     0.0444397  
H309     H      0.293480000000     0.883510000000     0.498590000000     0.0456343  
H310     H      0.242120000000     0.883130000000     0.535790000000     0.0562696  
H311     H      0.212570000000     0.913720000000     0.529390000000     0.0486252  
H312     H      0.173640000000     0.833360000000     0.550640000000     0.180306   
H313     H      0.251520000000     0.621860000000     0.957980000000     0.0455453  
H314     H      0.288440000000     0.665580000000     0.964150000000     0.0507458  
H315     H      0.208550000000     0.626810000000     0.006680000000     0.0802469  
H316     H      0.289330000000     0.604740000000     0.968190000000     0.0436277  
H317     H      0.303070000000     0.649750000000     0.500640000000     0.0494396  
H318     H      0.262740000000     0.650890000000     0.549790000000     0.0488411  
H319     H      0.224470000000     0.669490000000     0.543100000000     0.0508081  
H320     H      0.178320000000     0.587260000000     0.573490000000     0.183266   
H321     H      0.246560000000     0.559780000000     0.861330000000     0.0446533  
H322     H      0.282040000000     0.555190000000     0.907050000000     0.0403958  
H323     H      0.214860000000     0.980980000000     0.846450000000     0.0635115  
H324     H      0.286640000000     0.552510000000     0.848030000000     0.0546767  
H325     H      0.297830000000     0.517890000000     0.893390000000     0.0703157  
H326     H      0.212000000000     0.981390000000     0.906070000000     0.0467103  
H327     H      0.205620000000     0.019710000000     0.887980000000     0.0418154  
H328     H      0.300790000000     0.941980000000     0.875300000000     0.180197   
H329     H      0.257870000000     0.551990000000     0.636090000000     0.0572874  
H330     H      0.215530000000     0.533630000000     0.599890000000     0.0522401  
H331     H      0.307890000000     0.510890000000     0.638980000000     0.0662433  
H332     H      0.222410000000     0.539560000000     0.656940000000     0.0476986  
H333     H      0.214220000000     0.995110000000     0.619400000000     0.0472552  
H334     H      0.267340000000     0.957520000000     0.610180000000     0.0508516  
H335     H      0.301160000000     0.977900000000     0.594240000000     0.0472301  
H336     H      0.344310000000     0.951150000000     0.684170000000     0.189961   
H337     H      0.497630000000     0.787800000000     0.840490000000     0.044469   
H338     H      0.530100000000     0.780580000000     0.885830000000     0.0478937  
H339     H      0.449110000000     0.743130000000     0.849110000000     0.0688367  
H340     H      0.534030000000     0.771250000000     0.825890000000     0.048252   
H341     H      0.043830000000     0.742130000000     0.873000000000     0.045746   
H342     H      0.999300000000     0.694750000000     0.873080000000     0.0549028  
H343     H      0.961740000000     0.704720000000     0.891420000000     0.0457957  
H344     H      0.959340000000     0.649050000000     0.817900000000     0.178492   
H345     H      0.040510000000     0.756610000000     0.601570000000     0.0432426  
H346     H      0.026100000000     0.713400000000     0.636360000000     0.056325   
H347     H      0.497400000000     0.800160000000     0.605570000000     0.0662564  
H348     H      0.032930000000     0.721790000000     0.578010000000     0.0485291  
H349     H      0.991300000000     0.704000000000     0.613450000000     0.0557703  
H350     H      0.444180000000     0.749900000000     0.613690000000     0.0567208  
H351     H      0.451860000000     0.784030000000     0.638770000000     0.046525   
H352     H      0.416080000000     0.799940000000     0.549280000000     0.185524   
H353     H      0.122030000000     0.493730000000     0.707480000000     0.0477923  
H354     H      0.164450000000     0.958400000000     0.726990000000     0.0477667  
H355     H      0.117230000000     0.546240000000     0.742520000000     0.064582   
H356     H      0.105120000000     0.957550000000     0.723770000000     0.0413809  
H357     H      0.145910000000     0.956200000000     0.765320000000     0.049178   
H358     H      0.146650000000     0.011780000000     0.799200000000     0.0515041  
H359     H      0.160870000000     0.546610000000     0.778930000000     0.0469836  
H360     H      0.079440000000     0.546100000000     0.833190000000     0.186269   
H361     H      0.382880000000     0.555040000000     0.744180000000     0.0444223  
H362     H      0.411350000000     0.026320000000     0.702610000000     0.047602   
H363     H      0.384900000000     0.520320000000     0.793920000000     0.0643691  
H364     H      0.354510000000     0.044570000000     0.713840000000     0.0475645  
H365     H      0.382540000000     0.994290000000     0.703000000000     0.0566618  
H366     H      0.380420000000     0.958360000000     0.755800000000     0.0640115  
H367     H      0.409170000000     0.467500000000     0.786000000000     0.0595753  
H368     H      0.330080000000     0.443840000000     0.821900000000     0.190639   
H369     H      0.049050000000     0.876830000000     0.747990000000     0.0439475  
H370     H      0.037100000000     0.838570000000     0.707480000000     0.0462037  
H371     H      0.500790000000     0.873370000000     0.789420000000     0.0684746  
H372     H      0.041900000000     0.899490000000     0.712800000000     0.0439093  
H373     H      0.003480000000     0.861270000000     0.694040000000     0.0472866  
H374     H      0.452920000000     0.864040000000     0.734980000000     0.055735   
H375     H      0.456810000000     0.839760000000     0.769980000000     0.0464072  
H376     H      0.444300000000     0.922630000000     0.827210000000     0.185299   
H377     H      0.446670000000     0.616330000000     0.733170000000     0.0457547  
H378     H      0.468970000000     0.592680000000     0.781570000000     0.0442117  
H379     H      0.488240000000     0.614220000000     0.690130000000     0.0671157  
H380     H      0.449670000000     0.647040000000     0.762930000000     0.0493372  
H381     H      0.999750000000     0.623000000000     0.782950000000     0.0552065  
H382     H      0.043070000000     0.621810000000     0.736800000000     0.0652416  
H383     H      0.038990000000     0.591040000000     0.707340000000     0.0509857  
H384     H      0.064940000000     0.673850000000     0.673470000000     0.181141   
H385     H      0.867980000000     0.313460000000     0.496420000000     0.0425713  
H386     H      0.899990000000     0.294970000000     0.452630000000     0.0471672  
H387     H      0.870590000000     0.270450000000     0.040300000000     0.0697692  
H388     H      0.841580000000     0.306770000000     0.463750000000     0.0424745  
H389     H      0.873510000000     0.262010000000     0.445460000000     0.0469007  
H390     H      0.871780000000     0.215840000000     0.991470000000     0.0507374  
H391     H      0.899230000000     0.221680000000     0.023750000000     0.0507675  
H392     H      0.812960000000     0.189600000000     0.045650000000     0.187503   
H393     H      0.628140000000     0.297530000000     0.476430000000     0.0601387  
H394     H      0.589440000000     0.287180000000     0.017820000000     0.0477797  
H395     H      0.631340000000     0.246210000000     0.437170000000     0.0702128  
H396     H      0.648220000000     0.293510000000     0.013620000000     0.0596961  
H397     H      0.611350000000     0.252660000000     0.030870000000     0.0434921  
H398     H      0.612570000000     0.201990000000     0.992450000000     0.0520043  
H399     H      0.592630000000     0.206550000000     0.455070000000     0.044996   
H400     H      0.678660000000     0.182120000000     0.410750000000     0.186438   
H401     H      0.749410000000     0.386950000000     0.440660000000     0.0534347  
H402     H      0.794070000000     0.413050000000     0.467500000000     0.0467693  
H403     H      0.701350000000     0.391240000000     0.476770000000     0.0695748  
H404     H      0.779210000000     0.356870000000     0.449110000000     0.0443806  
H405     H      0.793480000000     0.383510000000     0.998590000000     0.0450117  
H406     H      0.742120000000     0.383130000000     0.035790000000     0.0558262  
H407     H      0.712570000000     0.413720000000     0.029390000000     0.0479886  
H408     H      0.673640000000     0.333360000000     0.050640000000     0.180733   
H409     H      0.751520000000     0.121860000000     0.457980000000     0.0457852  
H410     H      0.788440000000     0.165580000000     0.464150000000     0.0501396  
H411     H      0.708550000000     0.126810000000     0.506680000000     0.0796044  
H412     H      0.789330000000     0.104740000000     0.468190000000     0.0440512  
H413     H      0.803070000000     0.149750000000     0.000650000000     0.0515154  
H414     H      0.762740000000     0.150890000000     0.049780000000     0.0489632  
H415     H      0.724470000000     0.169490000000     0.043100000000     0.0510616  
H416     H      0.678320000000     0.087260000000     0.073490000000     0.183236   
H417     H      0.746560000000     0.059780000000     0.361330000000     0.0446732  
H418     H      0.782040000000     0.055190000000     0.407050000000     0.0405128  
H419     H      0.714860000000     0.480980000000     0.346450000000     0.063494   
H420     H      0.786640000000     0.052510000000     0.348030000000     0.0546754  
H421     H      0.797830000000     0.017890000000     0.393390000000     0.0703369  
H422     H      0.712000000000     0.481390000000     0.406080000000     0.0467491  
H423     H      0.705620000000     0.519710000000     0.387980000000     0.0418326  
H424     H      0.800790000000     0.441980000000     0.375300000000     0.180211   
H425     H      0.757870000000     0.051990000000     0.136080000000     0.0572779  
H426     H      0.715530000000     0.033630000000     0.099890000000     0.052225   
H427     H      0.807890000000     0.010890000000     0.138980000000     0.0661903  
H428     H      0.722410000000     0.039560000000     0.156940000000     0.0476952  
H429     H      0.714220000000     0.495110000000     0.119400000000     0.047229   
H430     H      0.767340000000     0.457520000000     0.110180000000     0.0509184  
H431     H      0.801160000000     0.477900000000     0.094240000000     0.0472961  
H432     H      0.844310000000     0.451150000000     0.184170000000     0.189895   
H433     H      0.997630000000     0.287800000000     0.340490000000     0.040272   
H434     H      0.030100000000     0.280580000000     0.385840000000     0.048698   
H435     H      0.949120000000     0.243130000000     0.349110000000     0.0687293  
H436     H      0.034030000000     0.271250000000     0.325890000000     0.0474025  
H437     H      0.543830000000     0.242130000000     0.373000000000     0.0450977  
H438     H      0.499290000000     0.194750000000     0.373080000000     0.0559476  
H439     H      0.461730000000     0.204720000000     0.391420000000     0.0459071  
H440     H      0.459350000000     0.149050000000     0.317900000000     0.178758   
H441     H      0.540510000000     0.256610000000     0.101570000000     0.0427437  
H442     H      0.526100000000     0.213400000000     0.136360000000     0.0574145  
H443     H      0.997410000000     0.300160000000     0.105570000000     0.0651599  
H444     H      0.532930000000     0.221790000000     0.078010000000     0.0478392  
H445     H      0.491300000000     0.204000000000     0.113450000000     0.060139   
H446     H      0.944180000000     0.249900000000     0.113690000000     0.0566752  
H447     H      0.951860000000     0.284030000000     0.138770000000     0.0463954  
H448     H      0.916090000000     0.299940000000     0.049280000000     0.18596    
H449     H      0.622030000000     0.993730000000     0.207480000000     0.0477314  
H450     H      0.664450000000     0.458400000000     0.226990000000     0.0477365  
H451     H      0.617230000000     0.046230000000     0.242520000000     0.064591   
H452     H      0.605120000000     0.457550000000     0.223770000000     0.0413145  
H453     H      0.645910000000     0.456200000000     0.265320000000     0.0491218  
H454     H      0.646650000000     0.511780000000     0.299200000000     0.0514506  
H455     H      0.660880000000     0.046610000000     0.278930000000     0.0469549  
H456     H      0.579440000000     0.046100000000     0.333200000000     0.185716   
H457     H      0.882890000000     0.055040000000     0.244180000000     0.044295   
H458     H      0.911350000000     0.526320000000     0.202610000000     0.0472359  
H459     H      0.884900000000     0.020320000000     0.293920000000     0.0642025  
H460     H      0.854510000000     0.544570000000     0.213840000000     0.0475384  
H461     H      0.882540000000     0.494290000000     0.203000000000     0.0565094  
H462     H      0.880420000000     0.458360000000     0.255800000000     0.0639526  
H463     H      0.909180000000     0.967500000000     0.286000000000     0.0593773  
H464     H      0.830080000000     0.943840000000     0.321900000000     0.190613   
H465     H      0.549050000000     0.376830000000     0.247990000000     0.043486   
H466     H      0.537100000000     0.338570000000     0.207480000000     0.0462878  
H467     H      0.000790000000     0.373370000000     0.289420000000     0.0730772  
H468     H      0.541900000000     0.399490000000     0.212800000000     0.0435752  
H469     H      0.503480000000     0.361270000000     0.194040000000     0.0464423  
H470     H      0.952920000000     0.364040000000     0.234970000000     0.0548892  
H471     H      0.956810000000     0.339760000000     0.269980000000     0.0457823  
H472     H      0.944300000000     0.422630000000     0.327210000000     0.185245   
H473     H      0.946680000000     0.116330000000     0.233170000000     0.0452304  
H474     H      0.968970000000     0.092680000000     0.281570000000     0.0440194  
H475     H      0.988250000000     0.114220000000     0.190130000000     0.0626616  
H476     H      0.949670000000     0.147040000000     0.262930000000     0.0492274  
H477     H      0.499760000000     0.123000000000     0.282950000000     0.0558818  
H478     H      0.543070000000     0.121810000000     0.236800000000     0.0643946  
H479     H      0.538990000000     0.091040000000     0.207340000000     0.0502926  
H480     H      0.564940000000     0.173850000000     0.173470000000     0.181219   
H481     H      0.867980000000     0.313460000000     0.996420000000     0.0423205  
H482     H      0.899990000000     0.294970000000     0.952630000000     0.0469877  
H483     H      0.870590000000     0.270450000000     0.540300000000     0.0692834  
H484     H      0.841580000000     0.306770000000     0.963760000000     0.0427424  
H485     H      0.873510000000     0.262010000000     0.945460000000     0.0466986  
H486     H      0.871780000000     0.215840000000     0.491470000000     0.0528624  
H487     H      0.899230000000     0.221680000000     0.523750000000     0.0510863  
H488     H      0.812960000000     0.189600000000     0.545650000000     0.187456   
H489     H      0.628140000000     0.297530000000     0.976420000000     0.0608954  
H490     H      0.589440000000     0.287180000000     0.517810000000     0.0480485  
H491     H      0.631340000000     0.246210000000     0.937170000000     0.070317   
H492     H      0.648220000000     0.293510000000     0.513620000000     0.0574353  
H493     H      0.611350000000     0.252660000000     0.530870000000     0.043914   
H494     H      0.612570000000     0.201990000000     0.492450000000     0.0525659  
H495     H      0.592630000000     0.206550000000     0.955070000000     0.0448601  
H496     H      0.678660000000     0.182120000000     0.910750000000     0.186375   
H497     H      0.749410000000     0.386950000000     0.940660000000     0.0534939  
H498     H      0.794070000000     0.413050000000     0.967500000000     0.0466101  
H499     H      0.701350000000     0.391240000000     0.976770000000     0.0702415  
H500     H      0.779210000000     0.356870000000     0.949110000000     0.0444168  
H501     H      0.793480000000     0.383510000000     0.498590000000     0.0455725  
H502     H      0.742120000000     0.383130000000     0.535790000000     0.0562432  
H503     H      0.712570000000     0.413720000000     0.529390000000     0.048533   
H504     H      0.673640000000     0.333360000000     0.550640000000     0.18019    
H505     H      0.751520000000     0.121860000000     0.957980000000     0.0455159  
H506     H      0.788440000000     0.165580000000     0.964150000000     0.0507358  
H507     H      0.708550000000     0.126810000000     0.006680000000     0.0801894  
H508     H      0.789330000000     0.104740000000     0.968190000000     0.0435705  
H509     H      0.803070000000     0.149750000000     0.500640000000     0.0493857  
H510     H      0.762740000000     0.150890000000     0.549790000000     0.0488108  
H511     H      0.724470000000     0.169490000000     0.543100000000     0.0507754  
H512     H      0.678320000000     0.087260000000     0.573490000000     0.183151   
H513     H      0.746560000000     0.059780000000     0.861330000000     0.0446277  
H514     H      0.782040000000     0.055190000000     0.907050000000     0.040344   
H515     H      0.714860000000     0.480980000000     0.846450000000     0.0634762  
H516     H      0.786640000000     0.052510000000     0.848030000000     0.0546489  
H517     H      0.797830000000     0.017890000000     0.893390000000     0.0702405  
H518     H      0.712000000000     0.481390000000     0.906070000000     0.0465995  
H519     H      0.705620000000     0.519710000000     0.887980000000     0.0417127  
H520     H      0.800790000000     0.441980000000     0.875300000000     0.180141   
H521     H      0.757870000000     0.051990000000     0.636090000000     0.0572632  
H522     H      0.715530000000     0.033630000000     0.599890000000     0.0521875  
H523     H      0.807890000000     0.010890000000     0.638980000000     0.0661435  
H524     H      0.722410000000     0.039560000000     0.656940000000     0.047681   
H525     H      0.714220000000     0.495110000000     0.619400000000     0.0471727  
H526     H      0.767340000000     0.457520000000     0.610180000000     0.0508213  
H527     H      0.801160000000     0.477900000000     0.594240000000     0.0471257  
H528     H      0.844310000000     0.451150000000     0.684170000000     0.18987    
H529     H      0.997630000000     0.287800000000     0.840490000000     0.0402416  
H530     H      0.030100000000     0.280580000000     0.885830000000     0.048658   
H531     H      0.949120000000     0.243130000000     0.849110000000     0.0687221  
H532     H      0.034030000000     0.271250000000     0.825890000000     0.0473928  
H533     H      0.543830000000     0.242130000000     0.873000000000     0.0450867  
H534     H      0.499290000000     0.194750000000     0.873080000000     0.0559007  
H535     H      0.461730000000     0.204720000000     0.891420000000     0.0458457  
H536     H      0.459350000000     0.149050000000     0.817900000000     0.178733   
H537     H      0.540510000000     0.256610000000     0.601570000000     0.0426351  
H538     H      0.526100000000     0.213400000000     0.636360000000     0.057366   
H539     H      0.997410000000     0.300160000000     0.605570000000     0.0650847  
H540     H      0.532930000000     0.221790000000     0.578010000000     0.0475949  
H541     H      0.491300000000     0.204000000000     0.613450000000     0.0600251  
H542     H      0.944180000000     0.249900000000     0.613690000000     0.0566031  
H543     H      0.951860000000     0.284030000000     0.638770000000     0.0463611  
H544     H      0.916090000000     0.299940000000     0.549280000000     0.185575   
H545     H      0.622030000000     0.993730000000     0.707480000000     0.0476949  
H546     H      0.664450000000     0.458400000000     0.726990000000     0.0477299  
H547     H      0.617230000000     0.046230000000     0.742520000000     0.0645842  
H548     H      0.605120000000     0.457550000000     0.723770000000     0.0412889  
H549     H      0.645910000000     0.456200000000     0.765320000000     0.0491088  
H550     H      0.646650000000     0.511780000000     0.799200000000     0.051422   
H551     H      0.660880000000     0.046610000000     0.778930000000     0.0469402  
H552     H      0.579440000000     0.046100000000     0.833190000000     0.185769   
H553     H      0.882890000000     0.055040000000     0.744180000000     0.0442626  
H554     H      0.911350000000     0.526320000000     0.702610000000     0.0471941  
H555     H      0.884900000000     0.020320000000     0.793920000000     0.0641744  
H556     H      0.854510000000     0.544570000000     0.713840000000     0.0474958  
H557     H      0.882540000000     0.494290000000     0.703000000000     0.0564824  
H558     H      0.880420000000     0.458360000000     0.755800000000     0.0639491  
H559     H      0.909180000000     0.967500000000     0.786000000000     0.0593589  
H560     H      0.830080000000     0.943840000000     0.821900000000     0.190607   
H561     H      0.549050000000     0.376830000000     0.747990000000     0.0434646  
H562     H      0.537100000000     0.338570000000     0.707480000000     0.046267   
H563     H      0.000790000000     0.373370000000     0.789420000000     0.0730799  
H564     H      0.541900000000     0.399490000000     0.712800000000     0.0435341  
H565     H      0.503480000000     0.361270000000     0.694040000000     0.0464047  
H566     H      0.952920000000     0.364040000000     0.734980000000     0.0548899  
H567     H      0.956810000000     0.339760000000     0.769980000000     0.045787   
H568     H      0.944300000000     0.422630000000     0.827210000000     0.185193   
H569     H      0.946680000000     0.116330000000     0.733170000000     0.0452131  
H570     H      0.968970000000     0.092680000000     0.781570000000     0.0439952  
H571     H      0.988250000000     0.114220000000     0.690130000000     0.0625921  
H572     H      0.949670000000     0.147040000000     0.762930000000     0.049224   
H573     H      0.499760000000     0.123000000000     0.782950000000     0.0558674  
H574     H      0.543070000000     0.121810000000     0.736800000000     0.0643876  
H575     H      0.538990000000     0.091040000000     0.707340000000     0.0502539  
H576     H      0.564940000000     0.173850000000     0.673470000000     0.181173   
H577     H      0.867980000000     0.813460000000     0.496420000000     0.0425719  
H578     H      0.899990000000     0.794970000000     0.452630000000     0.0471677  
H579     H      0.870590000000     0.770450000000     0.040300000000     0.0697692  
H580     H      0.841580000000     0.806770000000     0.463750000000     0.0424749  
H581     H      0.873510000000     0.762010000000     0.445460000000     0.0469008  
H582     H      0.871780000000     0.715840000000     0.991470000000     0.0507371  
H583     H      0.899230000000     0.721680000000     0.023750000000     0.0507675  
H584     H      0.812960000000     0.689600000000     0.045650000000     0.187503   
H585     H      0.628140000000     0.797530000000     0.476430000000     0.0601389  
H586     H      0.589440000000     0.787180000000     0.017820000000     0.04778    
H587     H      0.631340000000     0.746210000000     0.437170000000     0.0702128  
H588     H      0.648220000000     0.793510000000     0.013620000000     0.0596964  
H589     H      0.611350000000     0.752660000000     0.030870000000     0.043492   
H590     H      0.612570000000     0.701990000000     0.992450000000     0.0520044  
H591     H      0.592630000000     0.706550000000     0.455070000000     0.0449961  
H592     H      0.678660000000     0.682120000000     0.410750000000     0.186438   
H593     H      0.749410000000     0.886950000000     0.440660000000     0.0534355  
H594     H      0.794070000000     0.913050000000     0.467500000000     0.0467719  
H595     H      0.701350000000     0.891240000000     0.476770000000     0.069576   
H596     H      0.779210000000     0.856870000000     0.449110000000     0.0443809  
H597     H      0.793480000000     0.883510000000     0.998590000000     0.0450129  
H598     H      0.742120000000     0.883130000000     0.035790000000     0.0558269  
H599     H      0.712570000000     0.913720000000     0.029390000000     0.0479907  
H600     H      0.673640000000     0.833360000000     0.050640000000     0.180733   
H601     H      0.751520000000     0.621860000000     0.457980000000     0.0457861  
H602     H      0.788440000000     0.665580000000     0.464150000000     0.0501387  
H603     H      0.708550000000     0.626810000000     0.506680000000     0.079605   
H604     H      0.789330000000     0.604740000000     0.468190000000     0.0440453  
H605     H      0.803070000000     0.649750000000     0.000650000000     0.0515134  
H606     H      0.762740000000     0.650890000000     0.049780000000     0.0489626  
H607     H      0.724470000000     0.669490000000     0.043100000000     0.0510616  
H608     H      0.678320000000     0.587260000000     0.073490000000     0.183237   
H609     H      0.746560000000     0.559780000000     0.361330000000     0.0446735  
H610     H      0.782040000000     0.555190000000     0.407050000000     0.0405123  
H611     H      0.714860000000     0.980980000000     0.346450000000     0.0634921  
H612     H      0.786640000000     0.552510000000     0.348030000000     0.0546752  
H613     H      0.797830000000     0.517890000000     0.393390000000     0.0703394  
H614     H      0.712000000000     0.981390000000     0.406080000000     0.0467714  
H615     H      0.705620000000     0.019710000000     0.387980000000     0.0418385  
H616     H      0.800790000000     0.941980000000     0.375300000000     0.180211   
H617     H      0.757870000000     0.551990000000     0.136080000000     0.0572795  
H618     H      0.715530000000     0.533630000000     0.099890000000     0.0522214  
H619     H      0.807890000000     0.510890000000     0.138980000000     0.0662087  
H620     H      0.722410000000     0.539560000000     0.156940000000     0.0476987  
H621     H      0.714220000000     0.995110000000     0.119400000000     0.0472485  
H622     H      0.767340000000     0.957520000000     0.110180000000     0.0509201  
H623     H      0.801160000000     0.977900000000     0.094240000000     0.0473022  
H624     H      0.844310000000     0.951150000000     0.184170000000     0.189894   
H625     H      0.997630000000     0.787800000000     0.340490000000     0.0402727  
H626     H      0.030100000000     0.780580000000     0.385840000000     0.0486982  
H627     H      0.949120000000     0.743130000000     0.349110000000     0.0687327  
H628     H      0.034030000000     0.771250000000     0.325890000000     0.0474026  
H629     H      0.543830000000     0.742130000000     0.373000000000     0.0450976  
H630     H      0.499290000000     0.694750000000     0.373080000000     0.0559483  
H631     H      0.461730000000     0.704720000000     0.391420000000     0.0459078  
H632     H      0.459350000000     0.649050000000     0.317900000000     0.178753   
H633     H      0.540510000000     0.756610000000     0.101570000000     0.0427437  
H634     H      0.526100000000     0.713400000000     0.136360000000     0.0574145  
H635     H      0.997410000000     0.800160000000     0.105570000000     0.0651602  
H636     H      0.532930000000     0.721790000000     0.078010000000     0.0478393  
H637     H      0.491300000000     0.704000000000     0.113450000000     0.0601391  
H638     H      0.944180000000     0.749900000000     0.113690000000     0.0566751  
H639     H      0.951860000000     0.784030000000     0.138770000000     0.0463953  
H640     H      0.916090000000     0.799940000000     0.049280000000     0.18596    
H641     H      0.622030000000     0.493730000000     0.207480000000     0.0477278  
H642     H      0.664450000000     0.958400000000     0.226990000000     0.0477365  
H643     H      0.617230000000     0.546240000000     0.242520000000     0.0645698  
H644     H      0.605120000000     0.957550000000     0.223770000000     0.0413135  
H645     H      0.645910000000     0.956200000000     0.265320000000     0.0491233  
H646     H      0.646650000000     0.011780000000     0.299200000000     0.0514447  
H647     H      0.660880000000     0.546610000000     0.278930000000     0.0469574  
H648     H      0.579440000000     0.546100000000     0.333200000000     0.185717   
H649     H      0.882890000000     0.555040000000     0.244180000000     0.0442927  
H650     H      0.911350000000     0.026320000000     0.202610000000     0.0472416  
H651     H      0.884900000000     0.520320000000     0.293920000000     0.0641949  
H652     H      0.854510000000     0.044570000000     0.213840000000     0.0475358  
H653     H      0.882540000000     0.994290000000     0.203000000000     0.0565252  
H654     H      0.880420000000     0.958360000000     0.255800000000     0.0639469  
H655     H      0.909180000000     0.467500000000     0.286000000000     0.0593838  
H656     H      0.830080000000     0.443840000000     0.321900000000     0.190608   
H657     H      0.549050000000     0.876830000000     0.247990000000     0.0434864  
H658     H      0.537100000000     0.838570000000     0.207480000000     0.0462879  
H659     H      0.000790000000     0.873370000000     0.289420000000     0.0730776  
H660     H      0.541900000000     0.899490000000     0.212800000000     0.0435758  
H661     H      0.503480000000     0.861270000000     0.194040000000     0.0464423  
H662     H      0.952920000000     0.864040000000     0.234970000000     0.0548884  
H663     H      0.956810000000     0.839760000000     0.269980000000     0.0457825  
H664     H      0.944300000000     0.922630000000     0.327210000000     0.185247   
H665     H      0.946680000000     0.616330000000     0.233170000000     0.0452289  
H666     H      0.968970000000     0.592680000000     0.281570000000     0.044018   
H667     H      0.988250000000     0.614220000000     0.190130000000     0.0626622  
H668     H      0.949670000000     0.647040000000     0.262930000000     0.0492247  
H669     H      0.499760000000     0.623000000000     0.282950000000     0.0558822  
H670     H      0.543070000000     0.621810000000     0.236800000000     0.0643948  
H671     H      0.538990000000     0.591040000000     0.207340000000     0.0502941  
H672     H      0.564940000000     0.673850000000     0.173470000000     0.181219   
H673     H      0.867980000000     0.813460000000     0.996420000000     0.0423211  
H674     H      0.899990000000     0.794970000000     0.952630000000     0.0469882  
H675     H      0.870590000000     0.770450000000     0.540300000000     0.0692834  
H676     H      0.841580000000     0.806770000000     0.963760000000     0.0427428  
H677     H      0.873510000000     0.762010000000     0.945460000000     0.0466987  
H678     H      0.871780000000     0.715840000000     0.491470000000     0.0528623  
H679     H      0.899230000000     0.721680000000     0.523750000000     0.0510862  
H680     H      0.812960000000     0.689600000000     0.545650000000     0.187456   
H681     H      0.628140000000     0.797530000000     0.976420000000     0.0608957  
H682     H      0.589440000000     0.787180000000     0.517810000000     0.0480488  
H683     H      0.631340000000     0.746210000000     0.937170000000     0.070317   
H684     H      0.648220000000     0.793510000000     0.513620000000     0.0574354  
H685     H      0.611350000000     0.752660000000     0.530870000000     0.0439139  
H686     H      0.612570000000     0.701990000000     0.492450000000     0.0525661  
H687     H      0.592630000000     0.706550000000     0.955070000000     0.0448603  
H688     H      0.678660000000     0.682120000000     0.910750000000     0.186375   
H689     H      0.749410000000     0.886950000000     0.940660000000     0.0534948  
H690     H      0.794070000000     0.913050000000     0.967500000000     0.0466128  
H691     H      0.701350000000     0.891240000000     0.976770000000     0.0702427  
H692     H      0.779210000000     0.856870000000     0.949110000000     0.044417   
H693     H      0.793480000000     0.883510000000     0.498590000000     0.0455737  
H694     H      0.742120000000     0.883130000000     0.535790000000     0.056244   
H695     H      0.712570000000     0.913720000000     0.529390000000     0.0485351  
H696     H      0.673640000000     0.833360000000     0.550640000000     0.18019    
H697     H      0.751520000000     0.621860000000     0.957980000000     0.0455164  
H698     H      0.788440000000     0.665580000000     0.964150000000     0.0507351  
H699     H      0.708550000000     0.626810000000     0.006680000000     0.0801901  
H700     H      0.789330000000     0.604740000000     0.968190000000     0.0435641  
H701     H      0.803070000000     0.649750000000     0.500640000000     0.0493834  
H702     H      0.762740000000     0.650890000000     0.549790000000     0.0488101  
H703     H      0.724470000000     0.669490000000     0.543100000000     0.0507754  
H704     H      0.678320000000     0.587260000000     0.573490000000     0.183153   
H705     H      0.746560000000     0.559780000000     0.861330000000     0.044628   
H706     H      0.782040000000     0.555190000000     0.907050000000     0.0403435  
H707     H      0.714860000000     0.980980000000     0.846450000000     0.0634743  
H708     H      0.786640000000     0.552510000000     0.848030000000     0.0546486  
H709     H      0.797830000000     0.517890000000     0.893390000000     0.0702429  
H710     H      0.712000000000     0.981390000000     0.906070000000     0.0466215  
H711     H      0.705620000000     0.019710000000     0.887980000000     0.0417185  
H712     H      0.800790000000     0.941980000000     0.875300000000     0.180141   
H713     H      0.757870000000     0.551990000000     0.636090000000     0.0572648  
H714     H      0.715530000000     0.533630000000     0.599890000000     0.052184   
H715     H      0.807890000000     0.510890000000     0.638980000000     0.0661617  
H716     H      0.722410000000     0.539560000000     0.656940000000     0.0476844  
H717     H      0.714220000000     0.995110000000     0.619400000000     0.047192   
H718     H      0.767340000000     0.957520000000     0.610180000000     0.050823   
H719     H      0.801160000000     0.977900000000     0.594240000000     0.0471317  
H720     H      0.844310000000     0.951150000000     0.684170000000     0.189868   
H721     H      0.997630000000     0.787800000000     0.840490000000     0.0402423  
H722     H      0.030100000000     0.780580000000     0.885830000000     0.0486582  
H723     H      0.949120000000     0.743130000000     0.849110000000     0.0687256  
H724     H      0.034030000000     0.771250000000     0.825890000000     0.0473929  
H725     H      0.543830000000     0.742130000000     0.873000000000     0.0450867  
H726     H      0.499290000000     0.694750000000     0.873080000000     0.0559014  
H727     H      0.461730000000     0.704720000000     0.891420000000     0.0458464  
H728     H      0.459350000000     0.649050000000     0.817900000000     0.178728   
H729     H      0.540510000000     0.756610000000     0.601570000000     0.0426352  
H730     H      0.526100000000     0.713400000000     0.636360000000     0.057366   
H731     H      0.997410000000     0.800160000000     0.605570000000     0.065085   
H732     H      0.532930000000     0.721790000000     0.578010000000     0.047595   
H733     H      0.491300000000     0.704000000000     0.613450000000     0.0600252  
H734     H      0.944180000000     0.749900000000     0.613690000000     0.0566031  
H735     H      0.951860000000     0.784030000000     0.638770000000     0.0463611  
H736     H      0.916090000000     0.799940000000     0.549280000000     0.185575   
H737     H      0.622030000000     0.493730000000     0.707480000000     0.0476914  
H738     H      0.664450000000     0.958400000000     0.726990000000     0.0477298  
H739     H      0.617230000000     0.546240000000     0.742520000000     0.0645629  
H740     H      0.605120000000     0.957550000000     0.723770000000     0.0412879  
H741     H      0.645910000000     0.956200000000     0.765320000000     0.0491103  
H742     H      0.646650000000     0.011780000000     0.799200000000     0.0514162  
H743     H      0.660880000000     0.546610000000     0.778930000000     0.0469426  
H744     H      0.579440000000     0.546100000000     0.833190000000     0.18577    
H745     H      0.882890000000     0.555040000000     0.744180000000     0.0442603  
H746     H      0.911350000000     0.026320000000     0.702610000000     0.0471997  
H747     H      0.884900000000     0.520320000000     0.793920000000     0.0641668  
H748     H      0.854510000000     0.044570000000     0.713840000000     0.0474932  
H749     H      0.882540000000     0.994290000000     0.703000000000     0.0564979  
H750     H      0.880420000000     0.958360000000     0.755800000000     0.0639434  
H751     H      0.909180000000     0.467500000000     0.786000000000     0.0593654  
H752     H      0.830080000000     0.443840000000     0.821900000000     0.190602   
H753     H      0.549050000000     0.876830000000     0.747990000000     0.043465   
H754     H      0.537100000000     0.838570000000     0.707480000000     0.0462671  
H755     H      0.000790000000     0.873370000000     0.789420000000     0.0730803  
H756     H      0.541900000000     0.899490000000     0.712800000000     0.0435346  
H757     H      0.503480000000     0.861270000000     0.694040000000     0.0464046  
H758     H      0.952920000000     0.864040000000     0.734980000000     0.0548891  
H759     H      0.956810000000     0.839760000000     0.769980000000     0.0457873  
H760     H      0.944300000000     0.922630000000     0.827210000000     0.185195   
H761     H      0.946680000000     0.616330000000     0.733170000000     0.0452116  
H762     H      0.968970000000     0.592680000000     0.781570000000     0.0439939  
H763     H      0.988250000000     0.614220000000     0.690130000000     0.0625926  
H764     H      0.949670000000     0.647040000000     0.762930000000     0.0492213  
H765     H      0.499760000000     0.623000000000     0.782950000000     0.0558677  
H766     H      0.543070000000     0.621810000000     0.736800000000     0.0643878  
H767     H      0.538990000000     0.591040000000     0.707340000000     0.0502554  
H768     H      0.564940000000     0.673850000000     0.673470000000     0.181173   
N1       N      0.339090000000     0.272360000000     0.001630000000    -0.156017   
N2       N      0.401980000000     0.255960000000     0.985990000000    -0.171787   
N3       N      0.154310000000     0.254470000000     0.980730000000    -0.155095   
N4       N      0.088210000000     0.245830000000     0.987300000000    -0.172447   
N5       N      0.236880000000     0.355540000000     0.477890000000    -0.157163   
N6       N      0.254550000000     0.415850000000     0.499920000000    -0.17207    
N7       N      0.253240000000     0.103410000000     0.504230000000    -0.15665    
N8       N      0.257470000000     0.170750000000     0.504420000000    -0.169437   
N9       N      0.254280000000     0.512930000000     0.343630000000    -0.155663   
N10      N      0.250320000000     0.015350000000     0.410510000000    -0.170643   
N11      N      0.262590000000     0.507530000000     0.159910000000    -0.157123   
N12      N      0.256770000000     0.503610000000     0.093880000000    -0.17099    
N13      N      0.493250000000     0.239910000000     0.325080000000    -0.154806   
N14      N      0.497490000000     0.241310000000     0.392050000000    -0.170129   
N15      N      0.997430000000     0.259340000000     0.076010000000    -0.158104   
N16      N      0.486670000000     0.246400000000     0.140170000000    -0.168909   
N17      N      0.098950000000     0.000130000000     0.251470000000    -0.157377   
N18      N      0.166130000000     0.001460000000     0.254790000000    -0.17104    
N19      N      0.351660000000     0.017240000000     0.256800000000    -0.158436   
N20      N      0.412660000000     0.994890000000     0.242900000000    -0.169659   
N21      N      0.005440000000     0.401960000000     0.248480000000    -0.154607   
N22      N      0.994960000000     0.336470000000     0.236470000000    -0.173072   
N23      N      0.984330000000     0.149320000000     0.225580000000    -0.15876    
N24      N      0.505450000000     0.089590000000     0.245880000000    -0.168765   
N25      N      0.339090000000     0.272360000000     0.501630000000    -0.158484   
N26      N      0.401980000000     0.255960000000     0.485990000000    -0.17052    
N27      N      0.154310000000     0.254470000000     0.480730000000    -0.155821   
N28      N      0.088210000000     0.245830000000     0.487300000000    -0.171285   
N29      N      0.236880000000     0.355540000000     0.977900000000    -0.156407   
N30      N      0.254550000000     0.415850000000     0.999920000000    -0.173043   
N31      N      0.253240000000     0.103410000000     0.004230000000    -0.155947   
N32      N      0.257470000000     0.170750000000     0.004420000000    -0.166934   
N33      N      0.254280000000     0.512930000000     0.843630000000    -0.155649   
N34      N      0.250320000000     0.015350000000     0.910510000000    -0.170785   
N35      N      0.262590000000     0.507530000000     0.659910000000    -0.157124   
N36      N      0.256770000000     0.503610000000     0.593880000000    -0.170906   
N37      N      0.493250000000     0.239910000000     0.825080000000    -0.154804   
N38      N      0.497490000000     0.241310000000     0.892050000000    -0.170114   
N39      N      0.997430000000     0.259340000000     0.576010000000    -0.158249   
N40      N      0.486670000000     0.246400000000     0.640170000000    -0.168989   
N41      N      0.098950000000     0.000130000000     0.751470000000    -0.15738    
N42      N      0.166130000000     0.001460000000     0.754790000000    -0.171037   
N43      N      0.351660000000     0.017240000000     0.756800000000    -0.158449   
N44      N      0.412660000000     0.994890000000     0.742900000000    -0.169664   
N45      N      0.005440000000     0.401960000000     0.748470000000    -0.154609   
N46      N      0.994960000000     0.336470000000     0.736470000000    -0.173069   
N47      N      0.984330000000     0.149320000000     0.725580000000    -0.158771   
N48      N      0.505450000000     0.089590000000     0.745880000000    -0.168773   
N49      N      0.339090000000     0.772360000000     0.001630000000    -0.156016   
N50      N      0.401980000000     0.755960000000     0.985990000000    -0.171787   
N51      N      0.154310000000     0.754470000000     0.980730000000    -0.155095   
N52      N      0.088210000000     0.745830000000     0.987300000000    -0.172447   
N53      N      0.236880000000     0.855540000000     0.477890000000    -0.157163   
N54      N      0.254550000000     0.915850000000     0.499920000000    -0.172067   
N55      N      0.253240000000     0.603410000000     0.504230000000    -0.156648   
N56      N      0.257470000000     0.670750000000     0.504420000000    -0.169438   
N57      N      0.254280000000     0.012930000000     0.343630000000    -0.155671   
N58      N      0.250320000000     0.515350000000     0.410510000000    -0.170648   
N59      N      0.262590000000     0.007530000000     0.159910000000    -0.157132   
N60      N      0.256770000000     0.003610000000     0.093880000000    -0.170993   
N61      N      0.493250000000     0.739910000000     0.325080000000    -0.154806   
N62      N      0.497490000000     0.741310000000     0.392050000000    -0.170129   
N63      N      0.997430000000     0.759340000000     0.076010000000    -0.158104   
N64      N      0.486670000000     0.746400000000     0.140170000000    -0.16891    
N65      N      0.098950000000     0.500130000000     0.251470000000    -0.157363   
N66      N      0.166130000000     0.501460000000     0.254790000000    -0.171032   
N67      N      0.351660000000     0.517240000000     0.256800000000    -0.158442   
N68      N      0.412660000000     0.494890000000     0.242900000000    -0.169665   
N69      N      0.005440000000     0.901960000000     0.248480000000    -0.154608   
N70      N      0.994960000000     0.836470000000     0.236470000000    -0.173072   
N71      N      0.984330000000     0.649320000000     0.225580000000    -0.15876    
N72      N      0.505450000000     0.589590000000     0.245880000000    -0.168764   
N73      N      0.339090000000     0.772360000000     0.501630000000    -0.158484   
N74      N      0.401980000000     0.755960000000     0.485990000000    -0.17052    
N75      N      0.154310000000     0.754470000000     0.480730000000    -0.155821   
N76      N      0.088210000000     0.745830000000     0.487300000000    -0.171285   
N77      N      0.236880000000     0.855540000000     0.977900000000    -0.156407   
N78      N      0.254550000000     0.915850000000     0.999920000000    -0.17304    
N79      N      0.253240000000     0.603410000000     0.004230000000    -0.155945   
N80      N      0.257470000000     0.670750000000     0.004420000000    -0.166934   
N81      N      0.254280000000     0.012930000000     0.843630000000    -0.155657   
N82      N      0.250320000000     0.515350000000     0.910510000000    -0.170789   
N83      N      0.262590000000     0.007530000000     0.659910000000    -0.157133   
N84      N      0.256770000000     0.003610000000     0.593880000000    -0.170909   
N85      N      0.493250000000     0.739910000000     0.825080000000    -0.154805   
N86      N      0.497490000000     0.741310000000     0.892050000000    -0.170113   
N87      N      0.997430000000     0.759340000000     0.576010000000    -0.158249   
N88      N      0.486670000000     0.746400000000     0.640170000000    -0.168989   
N89      N      0.098950000000     0.500130000000     0.751470000000    -0.157366   
N90      N      0.166130000000     0.501460000000     0.754790000000    -0.171029   
N91      N      0.351660000000     0.517240000000     0.756800000000    -0.158455   
N92      N      0.412660000000     0.494890000000     0.742900000000    -0.16967    
N93      N      0.005440000000     0.901960000000     0.748470000000    -0.15461    
N94      N      0.994960000000     0.836470000000     0.736470000000    -0.173069   
N95      N      0.984330000000     0.649320000000     0.725580000000    -0.158771   
N96      N      0.505450000000     0.589590000000     0.745880000000    -0.168772   
N97      N      0.839090000000     0.272360000000     0.001630000000    -0.156003   
N98      N      0.901980000000     0.255960000000     0.985990000000    -0.171816   
N99      N      0.654310000000     0.254470000000     0.980730000000    -0.155084   
N100     N      0.588210000000     0.245830000000     0.987300000000    -0.1728     
N101     N      0.736880000000     0.355540000000     0.477890000000    -0.157162   
N102     N      0.754550000000     0.415850000000     0.499920000000    -0.172142   
N103     N      0.753240000000     0.103410000000     0.504230000000    -0.156668   
N104     N      0.757470000000     0.170750000000     0.504420000000    -0.169435   
N105     N      0.754280000000     0.512930000000     0.343630000000    -0.155662   
N106     N      0.750320000000     0.015350000000     0.410510000000    -0.170666   
N107     N      0.762590000000     0.507530000000     0.159910000000    -0.157121   
N108     N      0.756770000000     0.503610000000     0.093880000000    -0.171012   
N109     N      0.993250000000     0.239910000000     0.325080000000    -0.156548   
N110     N      0.997490000000     0.241310000000     0.392050000000    -0.170982   
N111     N      0.497430000000     0.259340000000     0.076010000000    -0.156575   
N112     N      0.986670000000     0.246400000000     0.140170000000    -0.170646   
N113     N      0.598950000000     0.000130000000     0.251470000000    -0.157348   
N114     N      0.666130000000     0.001460000000     0.254790000000    -0.171053   
N115     N      0.851660000000     0.017240000000     0.256800000000    -0.158443   
N116     N      0.912660000000     0.994890000000     0.242900000000    -0.169933   
N117     N      0.505440000000     0.401960000000     0.248480000000    -0.157219   
N118     N      0.494960000000     0.336470000000     0.236470000000    -0.171339   
N119     N      0.484320000000     0.149320000000     0.225580000000    -0.156872   
N120     N      0.005450000000     0.089590000000     0.245880000000    -0.166413   
N121     N      0.839090000000     0.272360000000     0.501630000000    -0.15849    
N122     N      0.901980000000     0.255960000000     0.485990000000    -0.17054    
N123     N      0.654310000000     0.254470000000     0.480730000000    -0.155818   
N124     N      0.588210000000     0.245830000000     0.487300000000    -0.171623   
N125     N      0.736880000000     0.355540000000     0.977900000000    -0.1564     
N126     N      0.754550000000     0.415850000000     0.999920000000    -0.173123   
N127     N      0.753240000000     0.103410000000     0.004230000000    -0.155958   
N128     N      0.757470000000     0.170750000000     0.004420000000    -0.16691    
N129     N      0.754280000000     0.512930000000     0.843630000000    -0.155648   
N130     N      0.750320000000     0.015350000000     0.910510000000    -0.170809   
N131     N      0.762590000000     0.507530000000     0.659910000000    -0.157122   
N132     N      0.756770000000     0.503610000000     0.593880000000    -0.170928   
N133     N      0.993250000000     0.239910000000     0.825080000000    -0.156551   
N134     N      0.997490000000     0.241310000000     0.892050000000    -0.170968   
N135     N      0.497430000000     0.259340000000     0.576010000000    -0.156708   
N136     N      0.986670000000     0.246400000000     0.640170000000    -0.170737   
N137     N      0.598950000000     0.000130000000     0.751470000000    -0.157351   
N138     N      0.666130000000     0.001460000000     0.754790000000    -0.17105    
N139     N      0.851660000000     0.017240000000     0.756800000000    -0.158456   
N140     N      0.912660000000     0.994890000000     0.742900000000    -0.169938   
N141     N      0.505440000000     0.401960000000     0.748470000000    -0.157231   
N142     N      0.494960000000     0.336470000000     0.736470000000    -0.171329   
N143     N      0.484320000000     0.149320000000     0.725580000000    -0.156873   
N144     N      0.005450000000     0.089590000000     0.745880000000    -0.16641    
N145     N      0.839090000000     0.772360000000     0.001630000000    -0.156003   
N146     N      0.901980000000     0.755960000000     0.985990000000    -0.171816   
N147     N      0.654310000000     0.754470000000     0.980730000000    -0.155084   
N148     N      0.588210000000     0.745830000000     0.987300000000    -0.1728     
N149     N      0.736880000000     0.855540000000     0.477890000000    -0.157162   
N150     N      0.754550000000     0.915850000000     0.499920000000    -0.172139   
N151     N      0.753240000000     0.603410000000     0.504230000000    -0.156666   
N152     N      0.757470000000     0.670750000000     0.504420000000    -0.169436   
N153     N      0.754280000000     0.012930000000     0.343630000000    -0.15567    
N154     N      0.750320000000     0.515350000000     0.410510000000    -0.170671   
N155     N      0.762590000000     0.007530000000     0.159910000000    -0.15713    
N156     N      0.756770000000     0.003610000000     0.093880000000    -0.171015   
N157     N      0.993250000000     0.739910000000     0.325080000000    -0.156548   
N158     N      0.997490000000     0.741310000000     0.392050000000    -0.170981   
N159     N      0.497430000000     0.759340000000     0.076010000000    -0.156575   
N160     N      0.986670000000     0.746400000000     0.140170000000    -0.170646   
N161     N      0.598950000000     0.500130000000     0.251470000000    -0.157334   
N162     N      0.666130000000     0.501460000000     0.254790000000    -0.171045   
N163     N      0.851660000000     0.517240000000     0.256800000000    -0.158448   
N164     N      0.912660000000     0.494890000000     0.242900000000    -0.169939   
N165     N      0.505440000000     0.901960000000     0.248480000000    -0.15722    
N166     N      0.494960000000     0.836470000000     0.236470000000    -0.171339   
N167     N      0.484320000000     0.649320000000     0.225580000000    -0.156872   
N168     N      0.005450000000     0.589590000000     0.245880000000    -0.166412   
N169     N      0.839090000000     0.772360000000     0.501630000000    -0.15849    
N170     N      0.901980000000     0.755960000000     0.485990000000    -0.17054    
N171     N      0.654310000000     0.754470000000     0.480730000000    -0.155818   
N172     N      0.588210000000     0.745830000000     0.487300000000    -0.171623   
N173     N      0.736880000000     0.855540000000     0.977900000000    -0.1564     
N174     N      0.754550000000     0.915850000000     0.999920000000    -0.17312    
N175     N      0.753240000000     0.603410000000     0.004230000000    -0.155956   
N176     N      0.757470000000     0.670750000000     0.004420000000    -0.16691    
N177     N      0.754280000000     0.012930000000     0.843630000000    -0.155656   
N178     N      0.750320000000     0.515350000000     0.910510000000    -0.170813   
N179     N      0.762590000000     0.007530000000     0.659910000000    -0.157131   
N180     N      0.756770000000     0.003610000000     0.593880000000    -0.170931   
N181     N      0.993250000000     0.739910000000     0.825080000000    -0.156552   
N182     N      0.997490000000     0.741310000000     0.892050000000    -0.170968   
N183     N      0.497430000000     0.759340000000     0.576010000000    -0.156708   
N184     N      0.986670000000     0.746400000000     0.640170000000    -0.170737   
N185     N      0.598950000000     0.500130000000     0.751470000000    -0.157337   
N186     N      0.666130000000     0.501460000000     0.754790000000    -0.171042   
N187     N      0.851660000000     0.517240000000     0.756800000000    -0.158461   
N188     N      0.912660000000     0.494890000000     0.742900000000    -0.169944   
N189     N      0.505440000000     0.901960000000     0.748470000000    -0.157232   
N190     N      0.494960000000     0.836470000000     0.736470000000    -0.171329   
N191     N      0.484320000000     0.649320000000     0.725580000000    -0.156873   
N192     N      0.005450000000     0.589590000000     0.745880000000    -0.16641    
Ni1      Ni     0.504040000000     0.996260000000     0.275210000000     1.01648    
Ni2      Ni     0.007730000000     0.995410000000     0.219200000000     1.00877    
Ni3      Ni     0.018170000000     0.241220000000     0.231040000000     1.00468    
Ni4      Ni     0.461550000000     0.244350000000     0.233980000000     1.00649    
Ni5      Ni     0.261070000000     0.481300000000     0.252870000000     1.02061    
Ni6      Ni     0.256850000000     0.037960000000     0.251000000000     1.00501    
Ni7      Ni     0.282290000000     0.009870000000     0.500740000000     1.00696    
Ni8      Ni     0.225510000000     0.509480000000     0.503500000000     1.02222    
Ni9      Ni     0.993820000000     0.222550000000     0.986550000000     0.991632   
Ni10     Ni     0.996630000000     0.278990000000     0.481410000000     0.988533   
Ni11     Ni     0.242810000000     0.266690000000     0.018520000000     1.02505    
Ni12     Ni     0.250780000000     0.259540000000     0.463370000000     0.999856   
Ni13     Ni     0.504040000000     0.996260000000     0.775210000000     1.01644    
Ni14     Ni     0.007730000000     0.995410000000     0.719200000000     1.00871    
Ni15     Ni     0.018170000000     0.241220000000     0.731040000000     1.0047     
Ni16     Ni     0.461550000000     0.244350000000     0.733980000000     1.00649    
Ni17     Ni     0.261070000000     0.481300000000     0.752870000000     1.02055    
Ni18     Ni     0.256850000000     0.037960000000     0.751000000000     1.00522    
Ni19     Ni     0.282290000000     0.009870000000     0.000740000000     1.01073    
Ni20     Ni     0.225510000000     0.509480000000     0.003510000000     1.02381    
Ni21     Ni     0.993820000000     0.222550000000     0.486550000000     0.993728   
Ni22     Ni     0.996630000000     0.278990000000     0.981410000000     0.986753   
Ni23     Ni     0.242810000000     0.266690000000     0.518520000000     1.02414    
Ni24     Ni     0.250780000000     0.259540000000     0.963370000000     0.997389   
Ni25     Ni     0.504040000000     0.496260000000     0.275210000000     1.01645    
Ni26     Ni     0.007730000000     0.495410000000     0.219200000000     1.00875    
Ni27     Ni     0.018170000000     0.741220000000     0.231040000000     1.00468    
Ni28     Ni     0.461550000000     0.744350000000     0.233980000000     1.00649    
Ni29     Ni     0.261070000000     0.981300000000     0.252870000000     1.02062    
Ni30     Ni     0.256850000000     0.537960000000     0.251000000000     1.00503    
Ni31     Ni     0.282290000000     0.509870000000     0.500740000000     1.00717    
Ni32     Ni     0.225510000000     0.009480000000     0.503500000000     1.02224    
Ni33     Ni     0.993820000000     0.722550000000     0.986550000000     0.991632   
Ni34     Ni     0.996630000000     0.778990000000     0.481410000000     0.988534   
Ni35     Ni     0.242810000000     0.766690000000     0.018520000000     1.02505    
Ni36     Ni     0.250780000000     0.759540000000     0.463370000000     0.999855   
Ni37     Ni     0.504040000000     0.496260000000     0.775210000000     1.01642    
Ni38     Ni     0.007730000000     0.495410000000     0.719200000000     1.00869    
Ni39     Ni     0.018170000000     0.741220000000     0.731040000000     1.0047     
Ni40     Ni     0.461550000000     0.744350000000     0.733980000000     1.00649    
Ni41     Ni     0.261070000000     0.981300000000     0.752870000000     1.02056    
Ni42     Ni     0.256850000000     0.537960000000     0.751000000000     1.00525    
Ni43     Ni     0.282290000000     0.509870000000     0.000740000000     1.01094    
Ni44     Ni     0.225510000000     0.009480000000     0.003510000000     1.02383    
Ni45     Ni     0.993820000000     0.722550000000     0.486550000000     0.993728   
Ni46     Ni     0.996630000000     0.778990000000     0.981410000000     0.986754   
Ni47     Ni     0.242810000000     0.766690000000     0.518520000000     1.02414    
Ni48     Ni     0.250780000000     0.759540000000     0.963370000000     0.997389   
Ni49     Ni     0.004040000000     0.996260000000     0.275210000000     1.02066    
Ni50     Ni     0.507730000000     0.995410000000     0.219200000000     1.00473    
Ni51     Ni     0.518170000000     0.241220000000     0.231040000000     1.00229    
Ni52     Ni     0.961550000000     0.244350000000     0.233980000000     1.00171    
Ni53     Ni     0.761070000000     0.481300000000     0.252870000000     1.02068    
Ni54     Ni     0.756850000000     0.037960000000     0.251000000000     1.005      
Ni55     Ni     0.782290000000     0.009870000000     0.500740000000     1.00687    
Ni56     Ni     0.725510000000     0.509480000000     0.503500000000     1.0221     
Ni57     Ni     0.493820000000     0.222550000000     0.986550000000     0.995321   
Ni58     Ni     0.496630000000     0.278990000000     0.481410000000     0.996627   
Ni59     Ni     0.742810000000     0.266690000000     0.018520000000     1.02508    
Ni60     Ni     0.750780000000     0.259540000000     0.463370000000     0.999837   
Ni61     Ni     0.004040000000     0.996260000000     0.775210000000     1.02064    
Ni62     Ni     0.507730000000     0.995410000000     0.719200000000     1.00464    
Ni63     Ni     0.518170000000     0.241220000000     0.731040000000     1.0023     
Ni64     Ni     0.961550000000     0.244350000000     0.733980000000     1.0017     
Ni65     Ni     0.761070000000     0.481300000000     0.752870000000     1.02062    
Ni66     Ni     0.756850000000     0.037960000000     0.751000000000     1.00521    
Ni67     Ni     0.782290000000     0.009870000000     0.000740000000     1.01068    
Ni68     Ni     0.725510000000     0.509480000000     0.003510000000     1.02371    
Ni69     Ni     0.493820000000     0.222550000000     0.486550000000     0.997402   
Ni70     Ni     0.496630000000     0.278990000000     0.981410000000     0.994873   
Ni71     Ni     0.742810000000     0.266690000000     0.518520000000     1.02416    
Ni72     Ni     0.750780000000     0.259540000000     0.963370000000     0.99735    
Ni73     Ni     0.004040000000     0.496260000000     0.275210000000     1.02063    
Ni74     Ni     0.507730000000     0.495410000000     0.219200000000     1.00471    
Ni75     Ni     0.518170000000     0.741220000000     0.231040000000     1.00229    
Ni76     Ni     0.961550000000     0.744350000000     0.233980000000     1.00171    
Ni77     Ni     0.761070000000     0.981300000000     0.252870000000     1.02069    
Ni78     Ni     0.756850000000     0.537960000000     0.251000000000     1.00502    
Ni79     Ni     0.782290000000     0.509870000000     0.500740000000     1.00709    
Ni80     Ni     0.725510000000     0.009480000000     0.503500000000     1.02212    
Ni81     Ni     0.493820000000     0.722550000000     0.986550000000     0.99532    
Ni82     Ni     0.496630000000     0.778990000000     0.481410000000     0.996628   
Ni83     Ni     0.742810000000     0.766690000000     0.018520000000     1.02508    
Ni84     Ni     0.750780000000     0.759540000000     0.463370000000     0.999837   
Ni85     Ni     0.004040000000     0.496260000000     0.775210000000     1.02062    
Ni86     Ni     0.507730000000     0.495410000000     0.719200000000     1.00463    
Ni87     Ni     0.518170000000     0.741220000000     0.731040000000     1.0023     
Ni88     Ni     0.961550000000     0.744350000000     0.733980000000     1.0017     
Ni89     Ni     0.761070000000     0.981300000000     0.752870000000     1.02063    
Ni90     Ni     0.756850000000     0.537960000000     0.751000000000     1.00523    
Ni91     Ni     0.782290000000     0.509870000000     0.000740000000     1.01089    
Ni92     Ni     0.725510000000     0.009480000000     0.003510000000     1.02373    
Ni93     Ni     0.493820000000     0.722550000000     0.486550000000     0.997402   
Ni94     Ni     0.496630000000     0.778990000000     0.981410000000     0.994874   
Ni95     Ni     0.742810000000     0.766690000000     0.518520000000     1.02416    
Ni96     Ni     0.750780000000     0.759540000000     0.963370000000     0.997349   
O1       O      0.458930000000     0.493040000000     0.271060000000    -0.447852   
O2       O      0.049870000000     0.999640000000     0.275490000000    -0.432945   
O3       O      0.500940000000     0.042100000000     0.272490000000    -0.443778   
O4       O      0.006200000000     0.450310000000     0.274140000000    -0.435931   
O5       O      0.506570000000     0.449450000000     0.221580000000    -0.442324   
O6       O      0.009780000000     0.041310000000     0.220720000000    -0.447743   
O7       O      0.053010000000     0.493640000000     0.223390000000    -0.449274   
O8       O      0.461710000000     0.997540000000     0.218820000000    -0.442555   
O9       O      0.014460000000     0.241060000000     0.186160000000    -0.44057    
O10      O      0.017990000000     0.241540000000     0.276650000000    -0.433683   
O11      O      0.013740000000     0.195410000000     0.230090000000    -0.426683   
O12      O      0.018750000000     0.287290000000     0.230820000000    -0.442689   
O13      O      0.466280000000     0.289820000000     0.238750000000    -0.445745   
O14      O      0.460650000000     0.198500000000     0.229870000000    -0.437994   
O15      O      0.464960000000     0.239300000000     0.278770000000    -0.432397   
O16      O      0.462020000000     0.249400000000     0.188580000000    -0.43763    
O17      O      0.306060000000     0.487130000000     0.258230000000    -0.433105   
O18      O      0.215700000000     0.479490000000     0.247890000000    -0.445717   
O19      O      0.266440000000     0.482390000000     0.208000000000    -0.43279    
O20      O      0.255280000000     0.484430000000     0.297550000000    -0.439774   
O21      O      0.259840000000     0.037650000000     0.295930000000    -0.447828   
O22      O      0.254210000000     0.034260000000     0.206230000000    -0.448778   
O23      O      0.211490000000     0.032300000000     0.254450000000    -0.445823   
O24      O      0.302570000000     0.039430000000     0.248030000000    -0.441545   
O25      O      0.280090000000     0.055720000000     0.004100000000    -0.442398   
O26      O      0.280650000000     0.464020000000     0.496440000000    -0.445048   
O27      O      0.278580000000     0.014490000000     0.456290000000    -0.450522   
O28      O      0.281990000000     0.505170000000     0.045890000000    -0.444772   
O29      O      0.229100000000     0.009990000000     0.048150000000    -0.45092    
O30      O      0.225700000000     0.509040000000     0.458250000000    -0.449789   
O31      O      0.228070000000     0.463630000000     0.004060000000    -0.448845   
O32      O      0.226860000000     0.055400000000     0.503780000000    -0.440811   
O33      O      0.498660000000     0.228730000000     0.031170000000    -0.439081   
O34      O      0.989410000000     0.220560000000     0.441500000000    -0.441728   
O35      O      0.039450000000     0.221640000000     0.982040000000    -0.439882   
O36      O      0.448470000000     0.227460000000     0.491000000000    -0.441359   
O37      O      0.450940000000     0.278940000000     0.977290000000    -0.440715   
O38      O      0.041910000000     0.274830000000     0.486260000000    -0.440243   
O39      O      0.501100000000     0.272410000000     0.436650000000    -0.440049   
O40      O      0.992350000000     0.281520000000     0.026550000000    -0.427641   
O41      O      0.245300000000     0.220970000000     0.022700000000    -0.441759   
O42      O      0.239800000000     0.311890000000     0.010530000000    -0.433004   
O43      O      0.198110000000     0.263610000000     0.011220000000    -0.445116   
O44      O      0.288520000000     0.269220000000     0.022180000000    -0.433004   
O45      O      0.295240000000     0.267330000000     0.470120000000    -0.445218   
O46      O      0.205290000000     0.252250000000     0.460410000000    -0.430732   
O47      O      0.244720000000     0.304950000000     0.458650000000    -0.441059   
O48      O      0.257360000000     0.214770000000     0.471960000000    -0.44025    
O49      O      0.333080000000     0.238150000000     0.072600000000    -0.234899   
O50      O      0.325630000000     0.204020000000     0.032860000000    -0.341976   
O51      O      0.169540000000     0.185820000000     0.468340000000    -0.242218   
O52      O      0.165420000000     0.199770000000     0.417760000000    -0.337188   
O53      O      0.161780000000     0.351460000000     0.996190000000    -0.254665   
O54      O      0.190340000000     0.345320000000     0.040120000000    -0.333182   
O55      O      0.236790000000     0.095820000000     0.071610000000    -0.246007   
O56      O      0.186330000000     0.098510000000     0.055150000000    -0.335358   
O57      O      0.243500000000     0.431810000000     0.365190000000    -0.24671    
O58      O      0.287730000000     0.460730000000     0.371460000000    -0.327543   
O59      O      0.290890000000     0.438810000000     0.162500000000    -0.23292    
O60      O      0.334000000000     0.468330000000     0.172660000000    -0.344325   
O61      O      0.925190000000     0.197490000000     0.319320000000    -0.239477   
O62      O      0.969330000000     0.168380000000     0.325740000000    -0.341058   
O63      O      0.458330000000     0.331770000000     0.074870000000    -0.240596   
O64      O      0.431110000000     0.287830000000     0.061860000000    -0.336624   
O65      O      0.081330000000     0.072570000000     0.280930000000    -0.244131   
O66      O      0.091980000000     0.035360000000     0.317190000000    -0.330675   
O67      O      0.339100000000     0.002200000000     0.328860000000    -0.239545   
O68      O      0.343290000000     0.954150000000     0.306170000000    -0.331333   
O69      O      0.437070000000     0.413570000000     0.269940000000    -0.246367   
O70      O      0.460530000000     0.409810000000     0.316950000000    -0.33699    
O71      O      0.012280000000     0.154970000000     0.154500000000    -0.249419   
O72      O      0.052610000000     0.161160000000     0.188200000000    -0.330957   
O73      O      0.458930000000     0.493040000000     0.771060000000    -0.447867   
O74      O      0.049870000000     0.999640000000     0.775490000000    -0.432966   
O75      O      0.500940000000     0.042100000000     0.772490000000    -0.443797   
O76      O      0.006200000000     0.450310000000     0.774140000000    -0.435951   
O77      O      0.506570000000     0.449450000000     0.721580000000    -0.442348   
O78      O      0.009780000000     0.041310000000     0.720720000000    -0.447768   
O79      O      0.053010000000     0.493640000000     0.723390000000    -0.449301   
O80      O      0.461710000000     0.997540000000     0.718820000000    -0.442586   
O81      O      0.014460000000     0.241060000000     0.686160000000    -0.440483   
O82      O      0.017990000000     0.241540000000     0.776650000000    -0.433667   
O83      O      0.013740000000     0.195410000000     0.730090000000    -0.426666   
O84      O      0.018750000000     0.287290000000     0.730820000000    -0.442675   
O85      O      0.466280000000     0.289820000000     0.738750000000    -0.445744   
O86      O      0.460650000000     0.198500000000     0.729870000000    -0.437998   
O87      O      0.464960000000     0.239300000000     0.778770000000    -0.432392   
O88      O      0.462020000000     0.249400000000     0.688580000000    -0.437553   
O89      O      0.306060000000     0.487130000000     0.758230000000    -0.43309    
O90      O      0.215700000000     0.479490000000     0.747880000000    -0.445674   
O91      O      0.266440000000     0.482390000000     0.708000000000    -0.432774   
O92      O      0.255280000000     0.484430000000     0.797550000000    -0.439742   
O93      O      0.259840000000     0.037650000000     0.795920000000    -0.447896   
O94      O      0.254210000000     0.034260000000     0.706230000000    -0.448811   
O95      O      0.211490000000     0.032300000000     0.754450000000    -0.445836   
O96      O      0.302570000000     0.039430000000     0.748030000000    -0.44157    
O97      O      0.280090000000     0.055720000000     0.504100000000    -0.442438   
O98      O      0.280650000000     0.464020000000     0.996440000000    -0.446185   
O99      O      0.278580000000     0.014490000000     0.956290000000    -0.452083   
O100     O      0.281990000000     0.505170000000     0.545890000000    -0.444532   
O101     O      0.229100000000     0.009990000000     0.548150000000    -0.450622   
O102     O      0.225700000000     0.509040000000     0.958250000000    -0.451087   
O103     O      0.228070000000     0.463630000000     0.504060000000    -0.450523   
O104     O      0.226860000000     0.055400000000     0.003780000000    -0.4406     
O105     O      0.498660000000     0.228730000000     0.531160000000    -0.440678   
O106     O      0.989410000000     0.220560000000     0.941500000000    -0.441423   
O107     O      0.039450000000     0.221640000000     0.482040000000    -0.439787   
O108     O      0.448470000000     0.227460000000     0.991000000000    -0.441774   
O109     O      0.450940000000     0.278940000000     0.477290000000    -0.440587   
O110     O      0.041910000000     0.274830000000     0.986260000000    -0.440642   
O111     O      0.501100000000     0.272410000000     0.936650000000    -0.439765   
O112     O      0.992350000000     0.281520000000     0.526550000000    -0.429135   
O113     O      0.245300000000     0.220970000000     0.522700000000    -0.443814   
O114     O      0.239800000000     0.311890000000     0.510530000000    -0.434928   
O115     O      0.198110000000     0.263610000000     0.511220000000    -0.446969   
O116     O      0.288520000000     0.269220000000     0.522180000000    -0.4351     
O117     O      0.295240000000     0.267330000000     0.970120000000    -0.444223   
O118     O      0.205290000000     0.252250000000     0.960410000000    -0.430001   
O119     O      0.244720000000     0.304950000000     0.958650000000    -0.440313   
O120     O      0.257360000000     0.214770000000     0.971960000000    -0.43926    
O121     O      0.333080000000     0.238150000000     0.572600000000    -0.234827   
O122     O      0.325630000000     0.204020000000     0.532860000000    -0.342476   
O123     O      0.169540000000     0.185820000000     0.968340000000    -0.242822   
O124     O      0.165420000000     0.199770000000     0.917760000000    -0.337273   
O125     O      0.161780000000     0.351460000000     0.496190000000    -0.251558   
O126     O      0.190340000000     0.345320000000     0.540120000000    -0.332004   
O127     O      0.236790000000     0.095820000000     0.571610000000    -0.245932   
O128     O      0.186330000000     0.098510000000     0.555150000000    -0.335579   
O129     O      0.243500000000     0.431810000000     0.865190000000    -0.246759   
O130     O      0.287730000000     0.460730000000     0.871450000000    -0.327556   
O131     O      0.290890000000     0.438810000000     0.662500000000    -0.232972   
O132     O      0.334000000000     0.468330000000     0.672660000000    -0.344367   
O133     O      0.925190000000     0.197490000000     0.819320000000    -0.239495   
O134     O      0.969330000000     0.168380000000     0.825740000000    -0.341082   
O135     O      0.458330000000     0.331770000000     0.574870000000    -0.24098    
O136     O      0.431110000000     0.287830000000     0.561860000000    -0.336778   
O137     O      0.081330000000     0.072570000000     0.780940000000    -0.244201   
O138     O      0.091980000000     0.035360000000     0.817190000000    -0.330866   
O139     O      0.339100000000     0.002200000000     0.828860000000    -0.239593   
O140     O      0.343290000000     0.954150000000     0.806170000000    -0.331339   
O141     O      0.437070000000     0.413570000000     0.769940000000    -0.246377   
O142     O      0.460530000000     0.409810000000     0.816950000000    -0.337032   
O143     O      0.012280000000     0.154970000000     0.654500000000    -0.249529   
O144     O      0.052610000000     0.161160000000     0.688200000000    -0.330967   
O145     O      0.458930000000     0.993040000000     0.271060000000    -0.447861   
O146     O      0.049870000000     0.499640000000     0.275490000000    -0.432946   
O147     O      0.500940000000     0.542100000000     0.272490000000    -0.443768   
O148     O      0.006200000000     0.950310000000     0.274140000000    -0.435938   
O149     O      0.506570000000     0.949450000000     0.221580000000    -0.442331   
O150     O      0.009780000000     0.541310000000     0.220720000000    -0.447733   
O151     O      0.053010000000     0.993640000000     0.223390000000    -0.449275   
O152     O      0.461710000000     0.497540000000     0.218820000000    -0.442565   
O153     O      0.014460000000     0.741060000000     0.186160000000    -0.440571   
O154     O      0.017990000000     0.741540000000     0.276650000000    -0.433683   
O155     O      0.013740000000     0.695410000000     0.230090000000    -0.426684   
O156     O      0.018750000000     0.787290000000     0.230820000000    -0.442689   
O157     O      0.466280000000     0.789820000000     0.238750000000    -0.445744   
O158     O      0.460650000000     0.698500000000     0.229870000000    -0.437995   
O159     O      0.464960000000     0.739300000000     0.278770000000    -0.432393   
O160     O      0.462020000000     0.749400000000     0.188580000000    -0.43763    
O161     O      0.306060000000     0.987130000000     0.258230000000    -0.433088   
O162     O      0.215700000000     0.979490000000     0.247890000000    -0.445701   
O163     O      0.266440000000     0.982390000000     0.208000000000    -0.432774   
O164     O      0.255280000000     0.984430000000     0.297550000000    -0.439758   
O165     O      0.259840000000     0.537650000000     0.295930000000    -0.447834   
O166     O      0.254210000000     0.534260000000     0.206230000000    -0.448783   
O167     O      0.211490000000     0.532300000000     0.254450000000    -0.445829   
O168     O      0.302570000000     0.539430000000     0.248030000000    -0.441552   
O169     O      0.280090000000     0.555710000000     0.004100000000    -0.442469   
O170     O      0.280650000000     0.964020000000     0.496440000000    -0.445001   
O171     O      0.278580000000     0.514490000000     0.456290000000    -0.450544   
O172     O      0.281990000000     0.005170000000     0.045890000000    -0.444753   
O173     O      0.229100000000     0.509990000000     0.048150000000    -0.450915   
O174     O      0.225700000000     0.009040000000     0.458250000000    -0.449793   
O175     O      0.228070000000     0.963630000000     0.004060000000    -0.44883    
O176     O      0.226860000000     0.555400000000     0.503780000000    -0.440783   
O177     O      0.498660000000     0.728730000000     0.031170000000    -0.439081   
O178     O      0.989410000000     0.720560000000     0.441500000000    -0.441728   
O179     O      0.039450000000     0.721640000000     0.982040000000    -0.439882   
O180     O      0.448470000000     0.727460000000     0.491000000000    -0.441359   
O181     O      0.450940000000     0.778940000000     0.977290000000    -0.440715   
O182     O      0.041910000000     0.774830000000     0.486260000000    -0.440243   
O183     O      0.501100000000     0.772410000000     0.436650000000    -0.440048   
O184     O      0.992350000000     0.781520000000     0.026550000000    -0.427641   
O185     O      0.245300000000     0.720970000000     0.022700000000    -0.441759   
O186     O      0.239800000000     0.811890000000     0.010530000000    -0.433003   
O187     O      0.198110000000     0.763610000000     0.011220000000    -0.445116   
O188     O      0.288520000000     0.769220000000     0.022180000000    -0.433003   
O189     O      0.295240000000     0.767330000000     0.470120000000    -0.445218   
O190     O      0.205290000000     0.752250000000     0.460410000000    -0.430732   
O191     O      0.244720000000     0.804950000000     0.458650000000    -0.441059   
O192     O      0.257360000000     0.714770000000     0.471960000000    -0.44025    
O193     O      0.333080000000     0.738150000000     0.072600000000    -0.2349     
O194     O      0.325630000000     0.704020000000     0.032860000000    -0.341976   
O195     O      0.169540000000     0.685820000000     0.468340000000    -0.242218   
O196     O      0.165420000000     0.699770000000     0.417760000000    -0.337188   
O197     O      0.161780000000     0.851460000000     0.996190000000    -0.254664   
O198     O      0.190340000000     0.845320000000     0.040120000000    -0.333182   
O199     O      0.236790000000     0.595820000000     0.071610000000    -0.246007   
O200     O      0.186330000000     0.598510000000     0.055150000000    -0.335358   
O201     O      0.243500000000     0.931810000000     0.365190000000    -0.246707   
O202     O      0.287730000000     0.960730000000     0.371460000000    -0.327533   
O203     O      0.290890000000     0.938810000000     0.162500000000    -0.232918   
O204     O      0.334000000000     0.968330000000     0.172660000000    -0.344317   
O205     O      0.925190000000     0.697500000000     0.319320000000    -0.239471   
O206     O      0.969330000000     0.668380000000     0.325740000000    -0.34106    
O207     O      0.458330000000     0.831770000000     0.074870000000    -0.240594   
O208     O      0.431110000000     0.787830000000     0.061860000000    -0.336624   
O209     O      0.081330000000     0.572570000000     0.280930000000    -0.244126   
O210     O      0.091980000000     0.535360000000     0.317190000000    -0.330667   
O211     O      0.339100000000     0.502200000000     0.328860000000    -0.239518   
O212     O      0.343290000000     0.454150000000     0.306170000000    -0.331322   
O213     O      0.437070000000     0.913570000000     0.269940000000    -0.246374   
O214     O      0.460530000000     0.909810000000     0.316950000000    -0.33699    
O215     O      0.012280000000     0.654970000000     0.154500000000    -0.249419   
O216     O      0.052610000000     0.661160000000     0.188200000000    -0.330957   
O217     O      0.458930000000     0.993040000000     0.771060000000    -0.447876   
O218     O      0.049870000000     0.499640000000     0.775490000000    -0.432968   
O219     O      0.500940000000     0.542100000000     0.772490000000    -0.443788   
O220     O      0.006200000000     0.950310000000     0.774140000000    -0.435958   
O221     O      0.506570000000     0.949450000000     0.721580000000    -0.442355   
O222     O      0.009780000000     0.541310000000     0.720720000000    -0.447758   
O223     O      0.053010000000     0.993640000000     0.723390000000    -0.449302   
O224     O      0.461710000000     0.497540000000     0.718820000000    -0.442596   
O225     O      0.014460000000     0.741060000000     0.686160000000    -0.440483   
O226     O      0.017990000000     0.741540000000     0.776650000000    -0.433667   
O227     O      0.013740000000     0.695410000000     0.730090000000    -0.426666   
O228     O      0.018750000000     0.787290000000     0.730820000000    -0.442675   
O229     O      0.466280000000     0.789820000000     0.738750000000    -0.445744   
O230     O      0.460650000000     0.698500000000     0.729870000000    -0.437998   
O231     O      0.464960000000     0.739300000000     0.778770000000    -0.432388   
O232     O      0.462020000000     0.749400000000     0.688580000000    -0.437553   
O233     O      0.306060000000     0.987130000000     0.758230000000    -0.433074   
O234     O      0.215700000000     0.979490000000     0.747880000000    -0.445658   
O235     O      0.266440000000     0.982390000000     0.708000000000    -0.432759   
O236     O      0.255280000000     0.984430000000     0.797550000000    -0.439726   
O237     O      0.259840000000     0.537650000000     0.795920000000    -0.447902   
O238     O      0.254210000000     0.534260000000     0.706230000000    -0.448817   
O239     O      0.211490000000     0.532300000000     0.754450000000    -0.445842   
O240     O      0.302570000000     0.539430000000     0.748030000000    -0.441577   
O241     O      0.280090000000     0.555710000000     0.504100000000    -0.442508   
O242     O      0.280650000000     0.964020000000     0.996440000000    -0.446138   
O243     O      0.278580000000     0.514490000000     0.956290000000    -0.452106   
O244     O      0.281990000000     0.005170000000     0.545890000000    -0.444513   
O245     O      0.229100000000     0.509990000000     0.548150000000    -0.450617   
O246     O      0.225700000000     0.009040000000     0.958250000000    -0.45109    
O247     O      0.228070000000     0.963630000000     0.504060000000    -0.450509   
O248     O      0.226860000000     0.555400000000     0.003780000000    -0.440572   
O249     O      0.498660000000     0.728730000000     0.531160000000    -0.440678   
O250     O      0.989410000000     0.720560000000     0.941500000000    -0.441423   
O251     O      0.039450000000     0.721640000000     0.482040000000    -0.439788   
O252     O      0.448470000000     0.727460000000     0.991000000000    -0.441774   
O253     O      0.450940000000     0.778940000000     0.477290000000    -0.440587   
O254     O      0.041910000000     0.774830000000     0.986260000000    -0.440642   
O255     O      0.501100000000     0.772410000000     0.936650000000    -0.439765   
O256     O      0.992350000000     0.781520000000     0.526550000000    -0.429135   
O257     O      0.245300000000     0.720970000000     0.522700000000    -0.443814   
O258     O      0.239800000000     0.811890000000     0.510530000000    -0.434928   
O259     O      0.198110000000     0.763610000000     0.511220000000    -0.446969   
O260     O      0.288520000000     0.769220000000     0.522180000000    -0.4351     
O261     O      0.295240000000     0.767330000000     0.970120000000    -0.444223   
O262     O      0.205290000000     0.752250000000     0.960410000000    -0.430001   
O263     O      0.244720000000     0.804950000000     0.958650000000    -0.440313   
O264     O      0.257360000000     0.714770000000     0.971960000000    -0.43926    
O265     O      0.333080000000     0.738150000000     0.572600000000    -0.234827   
O266     O      0.325630000000     0.704020000000     0.532860000000    -0.342476   
O267     O      0.169540000000     0.685820000000     0.968340000000    -0.242822   
O268     O      0.165420000000     0.699770000000     0.917760000000    -0.337273   
O269     O      0.161780000000     0.851460000000     0.496190000000    -0.251557   
O270     O      0.190340000000     0.845320000000     0.540120000000    -0.332004   
O271     O      0.236790000000     0.595820000000     0.571610000000    -0.245932   
O272     O      0.186330000000     0.598510000000     0.555150000000    -0.335579   
O273     O      0.243500000000     0.931810000000     0.865190000000    -0.246755   
O274     O      0.287730000000     0.960730000000     0.871450000000    -0.327546   
O275     O      0.290890000000     0.938810000000     0.662500000000    -0.23297    
O276     O      0.334000000000     0.968330000000     0.672660000000    -0.344359   
O277     O      0.925190000000     0.697500000000     0.819320000000    -0.239489   
O278     O      0.969330000000     0.668380000000     0.825740000000    -0.341084   
O279     O      0.458330000000     0.831770000000     0.574870000000    -0.240978   
O280     O      0.431110000000     0.787830000000     0.561860000000    -0.336778   
O281     O      0.081330000000     0.572570000000     0.780940000000    -0.244196   
O282     O      0.091980000000     0.535360000000     0.817190000000    -0.330859   
O283     O      0.339100000000     0.502200000000     0.828860000000    -0.239567   
O284     O      0.343290000000     0.454150000000     0.806170000000    -0.331329   
O285     O      0.437070000000     0.913570000000     0.769940000000    -0.246384   
O286     O      0.460530000000     0.909810000000     0.816950000000    -0.337032   
O287     O      0.012280000000     0.654970000000     0.654500000000    -0.249529   
O288     O      0.052610000000     0.661160000000     0.688200000000    -0.330967   
O289     O      0.958930000000     0.493040000000     0.271060000000    -0.450883   
O290     O      0.549860000000     0.999640000000     0.275490000000    -0.432418   
O291     O      0.000940000000     0.042100000000     0.272490000000    -0.442809   
O292     O      0.506200000000     0.450310000000     0.274140000000    -0.436756   
O293     O      0.006570000000     0.449450000000     0.221580000000    -0.441806   
O294     O      0.509780000000     0.041310000000     0.220720000000    -0.448144   
O295     O      0.553010000000     0.493640000000     0.223390000000    -0.448628   
O296     O      0.961710000000     0.997540000000     0.218820000000    -0.445699   
O297     O      0.514460000000     0.241060000000     0.186160000000    -0.443993   
O298     O      0.517990000000     0.241540000000     0.276650000000    -0.437305   
O299     O      0.513740000000     0.195410000000     0.230090000000    -0.430178   
O300     O      0.518750000000     0.287290000000     0.230820000000    -0.446333   
O301     O      0.966280000000     0.289820000000     0.238750000000    -0.444599   
O302     O      0.960650000000     0.198500000000     0.229870000000    -0.436743   
O303     O      0.964960000000     0.239300000000     0.278770000000    -0.431081   
O304     O      0.962020000000     0.249400000000     0.188580000000    -0.436446   
O305     O      0.806060000000     0.487130000000     0.258230000000    -0.433116   
O306     O      0.715700000000     0.479490000000     0.247890000000    -0.445713   
O307     O      0.766430000000     0.482390000000     0.208000000000    -0.432822   
O308     O      0.755280000000     0.484430000000     0.297550000000    -0.439778   
O309     O      0.759840000000     0.037650000000     0.295930000000    -0.447828   
O310     O      0.754200000000     0.034260000000     0.206230000000    -0.44874    
O311     O      0.711490000000     0.032300000000     0.254450000000    -0.445816   
O312     O      0.802570000000     0.039430000000     0.248030000000    -0.441567   
O313     O      0.780090000000     0.055720000000     0.004100000000    -0.442462   
O314     O      0.780640000000     0.464020000000     0.496440000000    -0.445277   
O315     O      0.778580000000     0.014490000000     0.456290000000    -0.450574   
O316     O      0.781990000000     0.505170000000     0.045890000000    -0.444843   
O317     O      0.729100000000     0.009990000000     0.048150000000    -0.450969   
O318     O      0.725700000000     0.509040000000     0.458250000000    -0.449856   
O319     O      0.728070000000     0.463630000000     0.004060000000    -0.448949   
O320     O      0.726860000000     0.055400000000     0.503780000000    -0.440868   
O321     O      0.998660000000     0.228730000000     0.031170000000    -0.43981    
O322     O      0.489410000000     0.220560000000     0.441500000000    -0.442707   
O323     O      0.539450000000     0.221640000000     0.982040000000    -0.443056   
O324     O      0.948470000000     0.227460000000     0.491000000000    -0.440702   
O325     O      0.950940000000     0.278940000000     0.977290000000    -0.43978    
O326     O      0.541910000000     0.274830000000     0.486260000000    -0.443704   
O327     O      0.001100000000     0.272410000000     0.436650000000    -0.4332     
O328     O      0.492350000000     0.281520000000     0.026550000000    -0.428116   
O329     O      0.745300000000     0.220970000000     0.022700000000    -0.441731   
O330     O      0.739800000000     0.311890000000     0.010530000000    -0.432984   
O331     O      0.698110000000     0.263610000000     0.011220000000    -0.445113   
O332     O      0.788520000000     0.269220000000     0.022180000000    -0.432978   
O333     O      0.795240000000     0.267330000000     0.470120000000    -0.445206   
O334     O      0.705290000000     0.252250000000     0.460410000000    -0.430745   
O335     O      0.744720000000     0.304950000000     0.458650000000    -0.441063   
O336     O      0.757370000000     0.214770000000     0.471960000000    -0.440198   
O337     O      0.833080000000     0.238150000000     0.072600000000    -0.234907   
O338     O      0.825620000000     0.204020000000     0.032860000000    -0.341935   
O339     O      0.669540000000     0.185820000000     0.468340000000    -0.24233    
O340     O      0.665420000000     0.199770000000     0.417760000000    -0.33731    
O341     O      0.661780000000     0.351460000000     0.996190000000    -0.254955   
O342     O      0.690340000000     0.345320000000     0.040120000000    -0.33323    
O343     O      0.736790000000     0.095820000000     0.071610000000    -0.246035   
O344     O      0.686330000000     0.098510000000     0.055150000000    -0.335481   
O345     O      0.743500000000     0.431810000000     0.365190000000    -0.246757   
O346     O      0.787730000000     0.460730000000     0.371460000000    -0.32756    
O347     O      0.790890000000     0.438810000000     0.162500000000    -0.232949   
O348     O      0.834000000000     0.468330000000     0.172660000000    -0.344414   
O349     O      0.425190000000     0.197490000000     0.319320000000    -0.239428   
O350     O      0.469330000000     0.168380000000     0.325740000000    -0.34052    
O351     O      0.958330000000     0.331770000000     0.074870000000    -0.24141    
O352     O      0.931110000000     0.287830000000     0.061860000000    -0.336787   
O353     O      0.581330000000     0.072570000000     0.280930000000    -0.244521   
O354     O      0.591980000000     0.035360000000     0.317190000000    -0.330831   
O355     O      0.839100000000     0.002200000000     0.328860000000    -0.239656   
O356     O      0.843290000000     0.954150000000     0.306170000000    -0.331364   
O357     O      0.937070000000     0.413570000000     0.269940000000    -0.24734    
O358     O      0.960530000000     0.409810000000     0.316950000000    -0.338749   
O359     O      0.512280000000     0.154970000000     0.154500000000    -0.251979   
O360     O      0.552610000000     0.161160000000     0.188200000000    -0.331598   
O361     O      0.958930000000     0.493040000000     0.771060000000    -0.45091    
O362     O      0.549860000000     0.999640000000     0.775490000000    -0.432437   
O363     O      0.000940000000     0.042100000000     0.772490000000    -0.442825   
O364     O      0.506200000000     0.450310000000     0.774140000000    -0.436779   
O365     O      0.006570000000     0.449450000000     0.721580000000    -0.441827   
O366     O      0.509780000000     0.041310000000     0.720720000000    -0.448171   
O367     O      0.553010000000     0.493640000000     0.723390000000    -0.448652   
O368     O      0.961710000000     0.997540000000     0.718820000000    -0.445745   
O369     O      0.514460000000     0.241060000000     0.686160000000    -0.443923   
O370     O      0.517990000000     0.241540000000     0.776650000000    -0.437302   
O371     O      0.513740000000     0.195410000000     0.730090000000    -0.430176   
O372     O      0.518750000000     0.287290000000     0.730820000000    -0.446335   
O373     O      0.966280000000     0.289820000000     0.738750000000    -0.444593   
O374     O      0.960650000000     0.198500000000     0.729870000000    -0.436741   
O375     O      0.964960000000     0.239300000000     0.778770000000    -0.431071   
O376     O      0.962020000000     0.249400000000     0.688580000000    -0.436365   
O377     O      0.806060000000     0.487130000000     0.758230000000    -0.433102   
O378     O      0.715700000000     0.479490000000     0.747880000000    -0.445669   
O379     O      0.766430000000     0.482390000000     0.708000000000    -0.432806   
O380     O      0.755280000000     0.484430000000     0.797550000000    -0.439746   
O381     O      0.759840000000     0.037650000000     0.795920000000    -0.447896   
O382     O      0.754200000000     0.034260000000     0.706230000000    -0.448774   
O383     O      0.711490000000     0.032300000000     0.754450000000    -0.445829   
O384     O      0.802570000000     0.039430000000     0.748030000000    -0.441592   
O385     O      0.780090000000     0.055720000000     0.504100000000    -0.442503   
O386     O      0.780640000000     0.464020000000     0.996440000000    -0.446423   
O387     O      0.778580000000     0.014490000000     0.956290000000    -0.452149   
O388     O      0.781990000000     0.505170000000     0.545890000000    -0.4446     
O389     O      0.729100000000     0.009990000000     0.548150000000    -0.450668   
O390     O      0.725700000000     0.509040000000     0.958250000000    -0.451168   
O391     O      0.728070000000     0.463630000000     0.504060000000    -0.450643   
O392     O      0.726860000000     0.055400000000     0.003780000000    -0.440654   
O393     O      0.998660000000     0.228730000000     0.531160000000    -0.441424   
O394     O      0.489410000000     0.220560000000     0.941500000000    -0.442406   
O395     O      0.539450000000     0.221640000000     0.482040000000    -0.442953   
O396     O      0.948470000000     0.227460000000     0.991000000000    -0.441118   
O397     O      0.950940000000     0.278940000000     0.477290000000    -0.439653   
O398     O      0.541910000000     0.274830000000     0.986260000000    -0.444114   
O399     O      0.001100000000     0.272410000000     0.936650000000    -0.432899   
O400     O      0.492350000000     0.281520000000     0.526550000000    -0.429594   
O401     O      0.745300000000     0.220970000000     0.522700000000    -0.443804   
O402     O      0.739800000000     0.311890000000     0.510530000000    -0.434926   
O403     O      0.698110000000     0.263610000000     0.511220000000    -0.446985   
O404     O      0.788520000000     0.269220000000     0.522180000000    -0.435091   
O405     O      0.795240000000     0.267330000000     0.970120000000    -0.444203   
O406     O      0.705290000000     0.252250000000     0.960410000000    -0.430007   
O407     O      0.744720000000     0.304950000000     0.958650000000    -0.440311   
O408     O      0.757370000000     0.214770000000     0.971960000000    -0.4392     
O409     O      0.833080000000     0.238150000000     0.572600000000    -0.234834   
O410     O      0.825620000000     0.204020000000     0.532860000000    -0.34244    
O411     O      0.669540000000     0.185820000000     0.968340000000    -0.242939   
O412     O      0.665420000000     0.199770000000     0.917760000000    -0.337397   
O413     O      0.661780000000     0.351460000000     0.496190000000    -0.251817   
O414     O      0.690340000000     0.345320000000     0.540120000000    -0.33204    
O415     O      0.736790000000     0.095820000000     0.571610000000    -0.24596    
O416     O      0.686330000000     0.098510000000     0.555150000000    -0.335706   
O417     O      0.743500000000     0.431810000000     0.865190000000    -0.246806   
O418     O      0.787730000000     0.460730000000     0.871450000000    -0.327573   
O419     O      0.790890000000     0.438810000000     0.662500000000    -0.233002   
O420     O      0.834000000000     0.468330000000     0.672660000000    -0.344457   
O421     O      0.425190000000     0.197490000000     0.819320000000    -0.239446   
O422     O      0.469330000000     0.168380000000     0.825740000000    -0.340542   
O423     O      0.958330000000     0.331770000000     0.574870000000    -0.241801   
O424     O      0.931110000000     0.287830000000     0.561860000000    -0.336943   
O425     O      0.581330000000     0.072570000000     0.780940000000    -0.244592   
O426     O      0.591980000000     0.035360000000     0.817190000000    -0.331023   
O427     O      0.839100000000     0.002200000000     0.828860000000    -0.239705   
O428     O      0.843290000000     0.954150000000     0.806170000000    -0.33137    
O429     O      0.937070000000     0.413570000000     0.769940000000    -0.247354   
O430     O      0.960530000000     0.409810000000     0.816950000000    -0.338797   
O431     O      0.512280000000     0.154970000000     0.654500000000    -0.252105   
O432     O      0.552610000000     0.161160000000     0.688200000000    -0.331612   
O433     O      0.958930000000     0.993040000000     0.271060000000    -0.450892   
O434     O      0.549860000000     0.499640000000     0.275490000000    -0.43242    
O435     O      0.000940000000     0.542100000000     0.272490000000    -0.442799   
O436     O      0.506200000000     0.950310000000     0.274140000000    -0.436763   
O437     O      0.006570000000     0.949450000000     0.221580000000    -0.441813   
O438     O      0.509780000000     0.541310000000     0.220720000000    -0.448134   
O439     O      0.553010000000     0.993640000000     0.223390000000    -0.448629   
O440     O      0.961710000000     0.497540000000     0.218820000000    -0.445709   
O441     O      0.514460000000     0.741060000000     0.186160000000    -0.443993   
O442     O      0.517990000000     0.741540000000     0.276650000000    -0.437305   
O443     O      0.513740000000     0.695410000000     0.230090000000    -0.430179   
O444     O      0.518750000000     0.787290000000     0.230820000000    -0.446333   
O445     O      0.966280000000     0.789820000000     0.238750000000    -0.444599   
O446     O      0.960650000000     0.698500000000     0.229870000000    -0.436743   
O447     O      0.964960000000     0.739300000000     0.278770000000    -0.431077   
O448     O      0.962020000000     0.749400000000     0.188580000000    -0.436446   
O449     O      0.806060000000     0.987130000000     0.258230000000    -0.433099   
O450     O      0.715700000000     0.979490000000     0.247890000000    -0.445696   
O451     O      0.766430000000     0.982390000000     0.208000000000    -0.432806   
O452     O      0.755280000000     0.984430000000     0.297550000000    -0.439762   
O453     O      0.759840000000     0.537650000000     0.295930000000    -0.447834   
O454     O      0.754200000000     0.534260000000     0.206230000000    -0.448746   
O455     O      0.711490000000     0.532300000000     0.254450000000    -0.445822   
O456     O      0.802570000000     0.539430000000     0.248030000000    -0.441574   
O457     O      0.780090000000     0.555710000000     0.004100000000    -0.442533   
O458     O      0.780640000000     0.964020000000     0.496440000000    -0.445229   
O459     O      0.778580000000     0.514490000000     0.456290000000    -0.450596   
O460     O      0.781990000000     0.005170000000     0.045890000000    -0.444825   
O461     O      0.729100000000     0.509990000000     0.048150000000    -0.450964   
O462     O      0.725700000000     0.009040000000     0.458250000000    -0.44986    
O463     O      0.728070000000     0.963630000000     0.004060000000    -0.448934   
O464     O      0.726860000000     0.555400000000     0.503780000000    -0.44084    
O465     O      0.998660000000     0.728730000000     0.031170000000    -0.43981    
O466     O      0.489410000000     0.720560000000     0.441500000000    -0.442707   
O467     O      0.539450000000     0.721640000000     0.982040000000    -0.443056   
O468     O      0.948470000000     0.727460000000     0.491000000000    -0.440702   
O469     O      0.950940000000     0.778940000000     0.977290000000    -0.43978    
O470     O      0.541910000000     0.774830000000     0.486260000000    -0.443704   
O471     O      0.001100000000     0.772410000000     0.436650000000    -0.4332     
O472     O      0.492350000000     0.781520000000     0.026550000000    -0.428115   
O473     O      0.745300000000     0.720970000000     0.022700000000    -0.441731   
O474     O      0.739800000000     0.811890000000     0.010530000000    -0.432984   
O475     O      0.698110000000     0.763610000000     0.011220000000    -0.445113   
O476     O      0.788520000000     0.769220000000     0.022180000000    -0.432978   
O477     O      0.795240000000     0.767330000000     0.470120000000    -0.445206   
O478     O      0.705290000000     0.752250000000     0.460410000000    -0.430745   
O479     O      0.744720000000     0.804950000000     0.458650000000    -0.441063   
O480     O      0.757370000000     0.714770000000     0.471960000000    -0.440198   
O481     O      0.833080000000     0.738150000000     0.072600000000    -0.234907   
O482     O      0.825620000000     0.704020000000     0.032860000000    -0.341936   
O483     O      0.669540000000     0.685820000000     0.468340000000    -0.24233    
O484     O      0.665420000000     0.699770000000     0.417760000000    -0.337311   
O485     O      0.661780000000     0.851460000000     0.996190000000    -0.254954   
O486     O      0.690340000000     0.845320000000     0.040120000000    -0.33323    
O487     O      0.736790000000     0.595820000000     0.071610000000    -0.246035   
O488     O      0.686330000000     0.598510000000     0.055150000000    -0.335481   
O489     O      0.743500000000     0.931810000000     0.365190000000    -0.246753   
O490     O      0.787730000000     0.960730000000     0.371460000000    -0.32755    
O491     O      0.790890000000     0.938810000000     0.162500000000    -0.232947   
O492     O      0.834000000000     0.968330000000     0.172660000000    -0.344406   
O493     O      0.425190000000     0.697500000000     0.319320000000    -0.239422   
O494     O      0.469330000000     0.668380000000     0.325740000000    -0.340523   
O495     O      0.958330000000     0.831770000000     0.074870000000    -0.241409   
O496     O      0.931110000000     0.787830000000     0.061860000000    -0.336787   
O497     O      0.581330000000     0.572570000000     0.280930000000    -0.244516   
O498     O      0.591980000000     0.535360000000     0.317190000000    -0.330824   
O499     O      0.839100000000     0.502200000000     0.328860000000    -0.239629   
O500     O      0.843290000000     0.454150000000     0.306170000000    -0.331353   
O501     O      0.937070000000     0.913570000000     0.269940000000    -0.247348   
O502     O      0.960530000000     0.909810000000     0.316950000000    -0.338749   
O503     O      0.512280000000     0.654970000000     0.154500000000    -0.251979   
O504     O      0.552610000000     0.661160000000     0.188200000000    -0.331598   
O505     O      0.958930000000     0.993040000000     0.771060000000    -0.450918   
O506     O      0.549860000000     0.499640000000     0.775490000000    -0.432438   
O507     O      0.000940000000     0.542100000000     0.772490000000    -0.442815   
O508     O      0.506200000000     0.950310000000     0.774140000000    -0.436786   
O509     O      0.006570000000     0.949450000000     0.721580000000    -0.441835   
O510     O      0.509780000000     0.541310000000     0.720720000000    -0.448161   
O511     O      0.553010000000     0.993640000000     0.723390000000    -0.448653   
O512     O      0.961710000000     0.497540000000     0.718820000000    -0.445755   
O513     O      0.514460000000     0.741060000000     0.686160000000    -0.443923   
O514     O      0.517990000000     0.741540000000     0.776650000000    -0.437302   
O515     O      0.513740000000     0.695410000000     0.730090000000    -0.430176   
O516     O      0.518750000000     0.787290000000     0.730820000000    -0.446335   
O517     O      0.966280000000     0.789820000000     0.738750000000    -0.444592   
O518     O      0.960650000000     0.698500000000     0.729870000000    -0.436741   
O519     O      0.964960000000     0.739300000000     0.778770000000    -0.431067   
O520     O      0.962020000000     0.749400000000     0.688580000000    -0.436365   
O521     O      0.806060000000     0.987130000000     0.758230000000    -0.433084   
O522     O      0.715700000000     0.979490000000     0.747880000000    -0.445653   
O523     O      0.766430000000     0.982390000000     0.708000000000    -0.43279    
O524     O      0.755280000000     0.984430000000     0.797550000000    -0.43973    
O525     O      0.759840000000     0.537650000000     0.795920000000    -0.447902   
O526     O      0.754200000000     0.534260000000     0.706230000000    -0.44878    
O527     O      0.711490000000     0.532300000000     0.754450000000    -0.445835   
O528     O      0.802570000000     0.539430000000     0.748030000000    -0.441599   
O529     O      0.780090000000     0.555710000000     0.504100000000    -0.442573   
O530     O      0.780640000000     0.964020000000     0.996440000000    -0.446375   
O531     O      0.778580000000     0.514490000000     0.956290000000    -0.452171   
O532     O      0.781990000000     0.005170000000     0.545890000000    -0.444582   
O533     O      0.729100000000     0.509990000000     0.548150000000    -0.450663   
O534     O      0.725700000000     0.009040000000     0.958250000000    -0.451172   
O535     O      0.728070000000     0.963630000000     0.504060000000    -0.450629   
O536     O      0.726860000000     0.555400000000     0.003780000000    -0.440626   
O537     O      0.998660000000     0.728730000000     0.531160000000    -0.441424   
O538     O      0.489410000000     0.720560000000     0.941500000000    -0.442406   
O539     O      0.539450000000     0.721640000000     0.482040000000    -0.442953   
O540     O      0.948470000000     0.727460000000     0.991000000000    -0.441118   
O541     O      0.950940000000     0.778940000000     0.477290000000    -0.439652   
O542     O      0.541910000000     0.774830000000     0.986260000000    -0.444114   
O543     O      0.001100000000     0.772410000000     0.936650000000    -0.432899   
O544     O      0.492350000000     0.781520000000     0.526550000000    -0.429594   
O545     O      0.745300000000     0.720970000000     0.522700000000    -0.443804   
O546     O      0.739800000000     0.811890000000     0.510530000000    -0.434926   
O547     O      0.698110000000     0.763610000000     0.511220000000    -0.446985   
O548     O      0.788520000000     0.769220000000     0.522180000000    -0.435091   
O549     O      0.795240000000     0.767330000000     0.970120000000    -0.444203   
O550     O      0.705290000000     0.752250000000     0.960410000000    -0.430007   
O551     O      0.744720000000     0.804950000000     0.958650000000    -0.440311   
O552     O      0.757370000000     0.714770000000     0.971960000000    -0.439201   
O553     O      0.833080000000     0.738150000000     0.572600000000    -0.234834   
O554     O      0.825620000000     0.704020000000     0.532860000000    -0.34244    
O555     O      0.669540000000     0.685820000000     0.968340000000    -0.242939   
O556     O      0.665420000000     0.699770000000     0.917760000000    -0.337397   
O557     O      0.661780000000     0.851460000000     0.496190000000    -0.251816   
O558     O      0.690340000000     0.845320000000     0.540120000000    -0.33204    
O559     O      0.736790000000     0.595820000000     0.571610000000    -0.24596    
O560     O      0.686330000000     0.598510000000     0.555150000000    -0.335706   
O561     O      0.743500000000     0.931810000000     0.865190000000    -0.246802   
O562     O      0.787730000000     0.960730000000     0.871450000000    -0.327563   
O563     O      0.790890000000     0.938810000000     0.662500000000    -0.232999   
O564     O      0.834000000000     0.968330000000     0.672660000000    -0.344449   
O565     O      0.425190000000     0.697500000000     0.819320000000    -0.23944    
O566     O      0.469330000000     0.668380000000     0.825740000000    -0.340545   
O567     O      0.958330000000     0.831770000000     0.574870000000    -0.241799   
O568     O      0.931110000000     0.787830000000     0.561860000000    -0.336943   
O569     O      0.581330000000     0.572570000000     0.780940000000    -0.244588   
O570     O      0.591980000000     0.535360000000     0.817190000000    -0.331016   
O571     O      0.839100000000     0.502200000000     0.828860000000    -0.239678   
O572     O      0.843290000000     0.454150000000     0.806170000000    -0.33136    
O573     O      0.937070000000     0.913570000000     0.769940000000    -0.247362   
O574     O      0.960530000000     0.909810000000     0.816950000000    -0.338796   
O575     O      0.512280000000     0.654970000000     0.654500000000    -0.252105   
O576     O      0.552610000000     0.661160000000     0.688200000000    -0.331612   


