data_structure

_audit_creation_method RASPA-1.0
_audit_creation_date 2023-5-22
_audit_author_name 'Poobodin Mano'

_cell_length_a    41.4695
_cell_length_b    41.9625
_cell_length_c    42.1227
_cell_angle_alpha 90
_cell_angle_beta  89.9969
_cell_angle_gamma 90
_cell_volume      73300.4

_symmetry_cell_setting          triclinic
_symmetry_space_group_name_Hall 'P 1'
_symmetry_space_group_name_H-M  'P 1'
_symmetry_Int_Tables_number     1

_symmetry_equiv_pos_as_xyz 'x,y,z'

loop_
_atom_site_label
_atom_site_type_symbol
_atom_site_fract_x
_atom_site_fract_y
_atom_site_fract_z
_atom_site_charge
C1       C      0.501190000000     0.008180000000     0.289730000000     0.427917   
C2       C      0.502320000000     0.494000000000     0.169480000000     0.42742    
C3       C      0.002190000000     0.061720000000     0.222220000000     0.427853   
C4       C      0.002430000000     0.441160000000     0.237980000000     0.428726   
C5       C      0.506130000000     0.251110000000     0.299570000000     0.430235   
C6       C      0.504410000000     0.249630000000     0.178840000000     0.430642   
C7       C      0.004750000000     0.310860000000     0.236970000000     0.428317   
C8       C      0.004700000000     0.189310000000     0.240440000000     0.428355   
C9       C      0.263600000000     0.000320000000     0.194530000000     0.427193   
C10      C      0.264960000000     0.005530000000     0.315260000000     0.430333   
C11      C      0.267740000000     0.063280000000     0.251310000000     0.428158   
C12      C      0.259740000000     0.441870000000     0.257540000000     0.427521   
C13      C      0.263870000000     0.248500000000     0.332390000000     0.429367   
C14      C      0.257120000000     0.256380000000     0.211680000000     0.427852   
C15      C      0.265020000000     0.192120000000     0.268540000000     0.427823   
C16      C      0.257050000000     0.313420000000     0.276510000000     0.427788   
C17      C      0.510080000000     0.996630000000     0.418160000000     0.432165   
C18      C      0.509580000000     0.996630000000     0.039130000000     0.430756   
C19      C      0.447840000000     0.497680000000     0.478440000000     0.428306   
C20      C      0.070740000000     0.495040000000     0.478490000000     0.429613   
C21      C      0.501700000000     0.257560000000     0.428830000000     0.430527   
C22      C      0.499470000000     0.248600000000     0.049170000000     0.430197   
C23      C      0.439950000000     0.251390000000     0.487820000000     0.427642   
C24      C      0.063090000000     0.255340000000     0.491010000000     0.426407   
C25      C      0.258030000000     0.992970000000     0.065100000000     0.435222   
C26      C      0.257680000000     0.995580000000     0.444300000000     0.434273   
C27      C      0.320020000000     0.497420000000     0.004580000000     0.429481   
C28      C      0.197130000000     0.491650000000     0.005470000000     0.430925   
C29      C      0.250330000000     0.255130000000     0.460180000000     0.428886   
C30      C      0.254760000000     0.251760000000     0.081200000000     0.428066   
C31      C      0.190270000000     0.255240000000     0.522030000000     0.426853   
C32      C      0.313480000000     0.251260000000     0.518490000000     0.428004   
C33      C      0.387860000000     0.280280000000     0.488160000000    -0.0102238  
C34      C      0.388610000000     0.220580000000     0.487830000000    -0.0109224  
C35      C      0.365660000000     0.279950000000     0.017010000000    -0.00985298 
C36      C      0.364520000000     0.220130000000     0.015550000000    -0.0106257  
C37      C      0.138170000000     0.226210000000     0.020780000000    -0.0101121  
C38      C      0.138730000000     0.285880000000     0.522120000000    -0.0110471  
C39      C      0.115420000000     0.226780000000     0.992270000000    -0.0108815  
C40      C      0.114070000000     0.286550000000     0.494850000000    -0.0111103  
C41      C      0.396170000000     0.027850000000     0.976410000000    -0.0130926  
C42      C      0.396180000000     0.468130000000     0.479540000000    -0.0100007  
C43      C      0.370730000000     0.029170000000     0.002920000000    -0.0118415  
C44      C      0.372570000000     0.469560000000     0.507190000000    -0.00995075 
C45      C      0.121950000000     0.464390000000     0.474840000000    -0.0108605  
C46      C      0.122680000000     0.023780000000     0.482240000000    -0.0116852  
C47      C      0.146100000000     0.460670000000     0.002210000000    -0.00983123 
C48      C      0.145010000000     0.019810000000     0.010640000000    -0.0107984  
C49      C      0.228680000000     0.241580000000     0.162640000000    -0.00937329 
C50      C      0.274160000000     0.281560000000     0.161680000000    -0.0102421  
C51      C      0.241730000000     0.226410000000     0.132240000000    -0.009045   
C52      C      0.284000000000     0.269390000000     0.128720000000    -0.00998744 
C53      C      0.228780000000     0.234760000000     0.409640000000    -0.00955225 
C54      C      0.268250000000     0.280610000000     0.410490000000    -0.00972178 
C55      C      0.246240000000     0.220820000000     0.380870000000    -0.00869266 
C56      C      0.287400000000     0.264910000000     0.383550000000    -0.00938319 
C57      C      0.231470000000     0.511420000000     0.113730000000    -0.00923571 
C58      C      0.272800000000     0.467390000000     0.115470000000    -0.00885729 
C59      C      0.244290000000     0.024460000000     0.145160000000    -0.0087068  
C60      C      0.288270000000     0.982760000000     0.144570000000    -0.00670236 
C61      C      0.290570000000     0.489770000000     0.365430000000    -0.00908204 
C62      C      0.245190000000     0.029830000000     0.364770000000    -0.00920394 
C63      C      0.274730000000     0.472710000000     0.393370000000    -0.00897436 
C64      C      0.232050000000     0.015570000000     0.395650000000    -0.0118573  
C65      C      0.226630000000     0.392240000000     0.256760000000    -0.0116457  
C66      C      0.287310000000     0.389720000000     0.257820000000    -0.0101005  
C67      C      0.225330000000     0.363920000000     0.280130000000    -0.0111357  
C68      C      0.285520000000     0.364640000000     0.283730000000    -0.00963909 
C69      C      0.299550000000     0.113650000000     0.247300000000    -0.0110331  
C70      C      0.239360000000     0.114390000000     0.243360000000    -0.0095939  
C71      C      0.298190000000     0.142620000000     0.269810000000    -0.0115122  
C72      C      0.237470000000     0.140040000000     0.268660000000    -0.0100551  
C73      C      0.472060000000     0.263910000000     0.098540000000    -0.00944193 
C74      C      0.014180000000     0.220610000000     0.098290000000    -0.009504   
C75      C      0.484610000000     0.275630000000     0.130600000000    -0.00996253 
C76      C      0.029340000000     0.234780000000     0.128130000000    -0.00882333 
C77      C      0.473820000000     0.241720000000     0.380040000000    -0.00898313 
C78      C      0.017220000000     0.283680000000     0.378750000000    -0.00912015 
C79      C      0.486700000000     0.227480000000     0.349220000000    -0.00972543 
C80      C      0.032050000000     0.267740000000     0.349470000000    -0.00939878 
C81      C      0.523030000000     0.467130000000     0.121530000000    -0.0103533  
C82      C      0.476810000000     0.006030000000     0.118260000000    -0.0148339  
C83      C      0.034770000000     0.478400000000     0.088740000000    -0.0104154  
C84      C      0.992040000000     0.021250000000     0.089010000000    -0.00920887 
C85      C      0.022640000000     0.031440000000     0.339300000000    -0.00828709 
C86      C      0.475460000000     0.493500000000     0.340280000000    -0.00967059 
C87      C      0.036210000000     0.015390000000     0.369130000000    -0.0154778  
C88      C      0.491340000000     0.474820000000     0.367230000000    -0.00916675 
C89      C      0.033020000000     0.391900000000     0.250170000000    -0.0104477  
C90      C      0.472610000000     0.391000000000     0.248370000000    -0.0103032  
C91      C      0.034330000000     0.361620000000     0.230070000000    -0.010464   
C92      C      0.473630000000     0.360480000000     0.228640000000    -0.0104374  
C93      C      0.034370000000     0.137950000000     0.241230000000    -0.0106661  
C94      C      0.973780000000     0.138780000000     0.243500000000    -0.0102483  
C95      C      0.532780000000     0.112160000000     0.215560000000    -0.0105414  
C96      C      0.472450000000     0.112920000000     0.217950000000    -0.010383   
C97      C      0.501190000000     0.008180000000     0.789730000000     0.427917   
C98      C      0.502320000000     0.494000000000     0.669480000000     0.427422   
C99      C      0.002190000000     0.061720000000     0.722220000000     0.427853   
C100     C      0.002430000000     0.441160000000     0.737980000000     0.428747   
C101     C      0.506130000000     0.251110000000     0.799570000000     0.430114   
C102     C      0.504410000000     0.249630000000     0.678840000000     0.430637   
C103     C      0.004750000000     0.310860000000     0.736970000000     0.428317   
C104     C      0.004700000000     0.189310000000     0.740430000000     0.428355   
C105     C      0.263600000000     0.000320000000     0.694530000000     0.427212   
C106     C      0.264960000000     0.005530000000     0.815260000000     0.430424   
C107     C      0.267750000000     0.063280000000     0.751310000000     0.428162   
C108     C      0.259740000000     0.441870000000     0.757540000000     0.427275   
C109     C      0.263880000000     0.248500000000     0.832390000000     0.429223   
C110     C      0.257120000000     0.256380000000     0.711680000000     0.427849   
C111     C      0.265020000000     0.192120000000     0.768540000000     0.427819   
C112     C      0.257050000000     0.313420000000     0.776510000000     0.427786   
C113     C      0.510080000000     0.996630000000     0.918160000000     0.43227    
C114     C      0.509580000000     0.996630000000     0.539130000000     0.430804   
C115     C      0.447840000000     0.497680000000     0.978440000000     0.428242   
C116     C      0.070740000000     0.495040000000     0.978490000000     0.429546   
C117     C      0.501700000000     0.257560000000     0.928830000000     0.430496   
C118     C      0.499470000000     0.248600000000     0.549170000000     0.430319   
C119     C      0.439950000000     0.251390000000     0.987820000000     0.427579   
C120     C      0.063090000000     0.255340000000     0.991010000000     0.426349   
C121     C      0.258030000000     0.992970000000     0.565090000000     0.435249   
C122     C      0.257680000000     0.995580000000     0.944300000000     0.43428    
C123     C      0.320020000000     0.497420000000     0.504580000000     0.429369   
C124     C      0.197130000000     0.491650000000     0.505480000000     0.43081    
C125     C      0.250330000000     0.255130000000     0.960180000000     0.428939   
C126     C      0.254760000000     0.251760000000     0.581200000000     0.428046   
C127     C      0.190270000000     0.255240000000     0.022030000000     0.42694    
C128     C      0.313480000000     0.251260000000     0.018490000000     0.428033   
C129     C      0.387860000000     0.280280000000     0.988160000000    -0.0105946  
C130     C      0.388610000000     0.220580000000     0.987830000000    -0.0112435  
C131     C      0.365660000000     0.279950000000     0.517010000000    -0.0102183  
C132     C      0.364520000000     0.220130000000     0.515550000000    -0.0109771  
C133     C      0.138170000000     0.226210000000     0.520770000000    -0.0104238  
C134     C      0.138730000000     0.285880000000     0.022120000000    -0.0107097  
C135     C      0.115420000000     0.226780000000     0.492270000000    -0.0105738  
C136     C      0.114070000000     0.286550000000     0.994850000000    -0.0114228  
C137     C      0.396170000000     0.027850000000     0.476400000000    -0.01268    
C138     C      0.396180000000     0.468130000000     0.979540000000    -0.0103498  
C139     C      0.370730000000     0.029170000000     0.502920000000    -0.0126111  
C140     C      0.372570000000     0.469560000000     0.007190000000    -0.00957598 
C141     C      0.121950000000     0.464390000000     0.974840000000    -0.011326   
C142     C      0.122680000000     0.023780000000     0.982240000000    -0.0120166  
C143     C      0.146100000000     0.460670000000     0.502210000000    -0.01062    
C144     C      0.145010000000     0.019810000000     0.510640000000    -0.0111335  
C145     C      0.228680000000     0.241580000000     0.662640000000    -0.00938325 
C146     C      0.274160000000     0.281560000000     0.661680000000    -0.0102225  
C147     C      0.241730000000     0.226410000000     0.632240000000    -0.00900413 
C148     C      0.284000000000     0.269390000000     0.628720000000    -0.0100387  
C149     C      0.228780000000     0.234760000000     0.909640000000    -0.00953851 
C150     C      0.268250000000     0.280610000000     0.910490000000    -0.00968825 
C151     C      0.246240000000     0.220820000000     0.880870000000    -0.0086957  
C152     C      0.287400000000     0.264910000000     0.883550000000    -0.00946674 
C153     C      0.231470000000     0.511420000000     0.613730000000    -0.00927049 
C154     C      0.272800000000     0.467390000000     0.615470000000    -0.00883116 
C155     C      0.244300000000     0.024460000000     0.645160000000    -0.00865943 
C156     C      0.288280000000     0.982760000000     0.644570000000    -0.00680682 
C157     C      0.290570000000     0.489770000000     0.865430000000    -0.00907465 
C158     C      0.245190000000     0.029830000000     0.864770000000    -0.00920331 
C159     C      0.274730000000     0.472710000000     0.893370000000    -0.00894831 
C160     C      0.232050000000     0.015570000000     0.895650000000    -0.0118528  
C161     C      0.226630000000     0.392240000000     0.756760000000    -0.0116545  
C162     C      0.287310000000     0.389720000000     0.757820000000    -0.0101173  
C163     C      0.225330000000     0.363920000000     0.780130000000    -0.0111309  
C164     C      0.285520000000     0.364640000000     0.783730000000    -0.00959825 
C165     C      0.299550000000     0.113650000000     0.747300000000    -0.0110445  
C166     C      0.239360000000     0.114390000000     0.743350000000    -0.00966822 
C167     C      0.298190000000     0.142620000000     0.769810000000    -0.0115062  
C168     C      0.237470000000     0.140040000000     0.768660000000    -0.0100284  
C169     C      0.472070000000     0.263910000000     0.598540000000    -0.00930514 
C170     C      0.014180000000     0.220610000000     0.598290000000    -0.0095018  
C171     C      0.484610000000     0.275630000000     0.630600000000    -0.0100194  
C172     C      0.029340000000     0.234780000000     0.628130000000    -0.00882754 
C173     C      0.473820000000     0.241720000000     0.880030000000    -0.00894282 
C174     C      0.017220000000     0.283680000000     0.878750000000    -0.00912053 
C175     C      0.486700000000     0.227480000000     0.849220000000    -0.00973733 
C176     C      0.032050000000     0.267740000000     0.849470000000    -0.00939793 
C177     C      0.523030000000     0.467130000000     0.621530000000    -0.0103223  
C178     C      0.476810000000     0.006030000000     0.618260000000    -0.0148362  
C179     C      0.034770000000     0.478400000000     0.588740000000    -0.0104111  
C180     C      0.992040000000     0.021250000000     0.589010000000    -0.00920165 
C181     C      0.022640000000     0.031440000000     0.839300000000    -0.00828964 
C182     C      0.475460000000     0.493500000000     0.840280000000    -0.00968595 
C183     C      0.036210000000     0.015390000000     0.869130000000    -0.0154675  
C184     C      0.491340000000     0.474820000000     0.867230000000    -0.00911936 
C185     C      0.033020000000     0.391900000000     0.750170000000    -0.0104535  
C186     C      0.472610000000     0.391000000000     0.748370000000    -0.0103699  
C187     C      0.034330000000     0.361620000000     0.730070000000    -0.0104564  
C188     C      0.473630000000     0.360480000000     0.728640000000    -0.0104101  
C189     C      0.034370000000     0.137950000000     0.741230000000    -0.010636   
C190     C      0.973770000000     0.138780000000     0.743500000000    -0.0103542  
C191     C      0.532780000000     0.112160000000     0.715560000000    -0.0105551  
C192     C      0.472450000000     0.112920000000     0.717950000000    -0.0104354  
C193     C      0.501190000000     0.508180000000     0.289730000000     0.42842    
C194     C      0.502320000000     0.994000000000     0.169480000000     0.426848   
C195     C      0.002190000000     0.561720000000     0.222220000000     0.428385   
C196     C      0.002430000000     0.941160000000     0.237980000000     0.428037   
C197     C      0.506130000000     0.751100000000     0.299570000000     0.430239   
C198     C      0.504410000000     0.749630000000     0.178840000000     0.430641   
C199     C      0.004750000000     0.810850000000     0.236970000000     0.428416   
C200     C      0.004700000000     0.689310000000     0.240440000000     0.428283   
C201     C      0.263600000000     0.500320000000     0.194530000000     0.431225   
C202     C      0.264960000000     0.505530000000     0.315260000000     0.430772   
C203     C      0.267740000000     0.563280000000     0.251310000000     0.428357   
C204     C      0.259740000000     0.941870000000     0.257540000000     0.426978   
C205     C      0.263870000000     0.748500000000     0.332390000000     0.429383   
C206     C      0.257120000000     0.756380000000     0.211680000000     0.427848   
C207     C      0.265020000000     0.692120000000     0.268540000000     0.427816   
C208     C      0.257050000000     0.813420000000     0.276510000000     0.42779    
C209     C      0.510080000000     0.496630000000     0.418160000000     0.428746   
C210     C      0.509580000000     0.496630000000     0.039130000000     0.427183   
C211     C      0.447840000000     0.997680000000     0.478440000000     0.431902   
C212     C      0.070740000000     0.995040000000     0.478490000000     0.433433   
C213     C      0.501700000000     0.757560000000     0.428830000000     0.430518   
C214     C      0.499470000000     0.748600000000     0.049170000000     0.430457   
C215     C      0.439950000000     0.751390000000     0.487820000000     0.427636   
C216     C      0.063090000000     0.755340000000     0.491010000000     0.426401   
C217     C      0.258030000000     0.492970000000     0.065100000000     0.431575   
C218     C      0.257680000000     0.495580000000     0.444300000000     0.430665   
C219     C      0.320020000000     0.997420000000     0.004580000000     0.432797   
C220     C      0.197130000000     0.991650000000     0.005470000000     0.434254   
C221     C      0.250330000000     0.755140000000     0.460180000000     0.42884    
C222     C      0.254760000000     0.751750000000     0.081200000000     0.428025   
C223     C      0.190270000000     0.755240000000     0.522030000000     0.426811   
C224     C      0.313480000000     0.751260000000     0.518490000000     0.427965   
C225     C      0.387860000000     0.780280000000     0.488160000000    -0.0102304  
C226     C      0.388610000000     0.720580000000     0.487830000000    -0.0109276  
C227     C      0.365660000000     0.779950000000     0.017010000000    -0.00986065 
C228     C      0.364520000000     0.720130000000     0.015550000000    -0.010635   
C229     C      0.138170000000     0.726210000000     0.020780000000    -0.0101217  
C230     C      0.138730000000     0.785880000000     0.522120000000    -0.0110986  
C231     C      0.115420000000     0.726780000000     0.992270000000    -0.0108882  
C232     C      0.114070000000     0.786550000000     0.494850000000    -0.0111029  
C233     C      0.396170000000     0.527850000000     0.976410000000    -0.0114497  
C234     C      0.396180000000     0.968130000000     0.479540000000    -0.00973269 
C235     C      0.370730000000     0.529170000000     0.002920000000    -0.0101678  
C236     C      0.372570000000     0.969560000000     0.507190000000    -0.00971837 
C237     C      0.121950000000     0.964380000000     0.474840000000    -0.0107251  
C238     C      0.122680000000     0.523780000000     0.482240000000    -0.0100178  
C239     C      0.146100000000     0.960670000000     0.002210000000    -0.00950599 
C240     C      0.145010000000     0.519810000000     0.010640000000    -0.009194   
C241     C      0.228680000000     0.741580000000     0.162640000000    -0.00938557 
C242     C      0.274160000000     0.781560000000     0.161680000000    -0.0102554  
C243     C      0.241730000000     0.726410000000     0.132240000000    -0.00902682 
C244     C      0.284000000000     0.769390000000     0.128720000000    -0.00998239 
C245     C      0.228780000000     0.734760000000     0.409640000000    -0.00952117 
C246     C      0.268250000000     0.780620000000     0.410490000000    -0.00985155 
C247     C      0.246240000000     0.720810000000     0.380870000000    -0.00880927 
C248     C      0.287400000000     0.764910000000     0.383550000000    -0.00933773 
C249     C      0.231470000000     0.011420000000     0.113730000000    -0.0148738  
C250     C      0.272800000000     0.967390000000     0.115470000000    -0.00916062 
C251     C      0.244290000000     0.524460000000     0.145160000000    -0.00982585 
C252     C      0.288270000000     0.482760000000     0.144570000000    -0.00876873 
C253     C      0.290570000000     0.989770000000     0.365430000000    -0.0032203  
C254     C      0.245190000000     0.529830000000     0.364770000000    -0.00963527 
C255     C      0.274730000000     0.972710000000     0.393370000000    -0.0101234  
C256     C      0.232050000000     0.515570000000     0.395650000000    -0.00972218 
C257     C      0.226630000000     0.892240000000     0.256760000000    -0.0116948  
C258     C      0.287310000000     0.889720000000     0.257820000000    -0.0101364  
C259     C      0.225330000000     0.863910000000     0.280130000000    -0.0110822  
C260     C      0.285520000000     0.864640000000     0.283730000000    -0.00962709 
C261     C      0.299550000000     0.613650000000     0.247300000000    -0.0110345  
C262     C      0.239360000000     0.614390000000     0.243360000000    -0.00959438 
C263     C      0.298190000000     0.642620000000     0.269810000000    -0.0115052  
C264     C      0.237470000000     0.640040000000     0.268660000000    -0.0100601  
C265     C      0.472060000000     0.763910000000     0.098540000000    -0.00940343 
C266     C      0.014180000000     0.720610000000     0.098290000000    -0.0095042  
C267     C      0.484610000000     0.775630000000     0.130600000000    -0.00998654 
C268     C      0.029340000000     0.734780000000     0.128130000000    -0.00883033 
C269     C      0.473820000000     0.741710000000     0.380040000000    -0.00903912 
C270     C      0.017220000000     0.783680000000     0.378750000000    -0.00913362 
C271     C      0.486700000000     0.727480000000     0.349220000000    -0.00971773 
C272     C      0.032050000000     0.767740000000     0.349470000000    -0.00939166 
C273     C      0.523030000000     0.967130000000     0.121530000000    -0.0103472  
C274     C      0.476810000000     0.506030000000     0.118260000000    -0.00942187 
C275     C      0.034770000000     0.978400000000     0.088740000000    -0.0100788  
C276     C      0.992040000000     0.521250000000     0.089010000000    -0.00856447 
C277     C      0.022640000000     0.531440000000     0.339300000000    -0.00974043 
C278     C      0.475460000000     0.993510000000     0.340280000000    -0.00371633 
C279     C      0.036210000000     0.515390000000     0.369130000000    -0.00971205 
C280     C      0.491340000000     0.974820000000     0.367230000000    -0.010518   
C281     C      0.033020000000     0.891900000000     0.250170000000    -0.0105085  
C282     C      0.472610000000     0.891000000000     0.248370000000    -0.010359   
C283     C      0.034330000000     0.861620000000     0.230070000000    -0.0104585  
C284     C      0.473630000000     0.860480000000     0.228640000000    -0.0104353  
C285     C      0.034370000000     0.637950000000     0.241230000000    -0.0106826  
C286     C      0.973780000000     0.638770000000     0.243500000000    -0.0102876  
C287     C      0.532780000000     0.612160000000     0.215560000000    -0.0105282  
C288     C      0.472450000000     0.612920000000     0.217950000000    -0.0103515  
C289     C      0.501190000000     0.508180000000     0.789730000000     0.42842    
C290     C      0.502320000000     0.994000000000     0.669480000000     0.42685    
C291     C      0.002190000000     0.561720000000     0.722220000000     0.428385   
C292     C      0.002430000000     0.941160000000     0.737980000000     0.428058   
C293     C      0.506130000000     0.751100000000     0.799570000000     0.430119   
C294     C      0.504410000000     0.749630000000     0.678840000000     0.430636   
C295     C      0.004750000000     0.810850000000     0.736970000000     0.428415   
C296     C      0.004700000000     0.689310000000     0.740430000000     0.428283   
C297     C      0.263600000000     0.500320000000     0.694530000000     0.431243   
C298     C      0.264960000000     0.505530000000     0.815260000000     0.430862   
C299     C      0.267750000000     0.563280000000     0.751310000000     0.428361   
C300     C      0.259740000000     0.941870000000     0.757540000000     0.426735   
C301     C      0.263880000000     0.748500000000     0.832390000000     0.429239   
C302     C      0.257120000000     0.756380000000     0.711680000000     0.427845   
C303     C      0.265020000000     0.692120000000     0.768540000000     0.427813   
C304     C      0.257050000000     0.813420000000     0.776510000000     0.427788   
C305     C      0.510080000000     0.496630000000     0.918160000000     0.428857   
C306     C      0.509580000000     0.496630000000     0.539130000000     0.427228   
C307     C      0.447840000000     0.997680000000     0.978440000000     0.43183    
C308     C      0.070740000000     0.995040000000     0.978490000000     0.433358   
C309     C      0.501700000000     0.757560000000     0.928830000000     0.430487   
C310     C      0.499470000000     0.748600000000     0.549170000000     0.430579   
C311     C      0.439950000000     0.751390000000     0.987820000000     0.427572   
C312     C      0.063090000000     0.755340000000     0.991010000000     0.426343   
C313     C      0.258030000000     0.492970000000     0.565090000000     0.431598   
C314     C      0.257680000000     0.495580000000     0.944300000000     0.43068    
C315     C      0.320020000000     0.997420000000     0.504580000000     0.432689   
C316     C      0.197130000000     0.991650000000     0.505480000000     0.434142   
C317     C      0.250330000000     0.755140000000     0.960180000000     0.428894   
C318     C      0.254760000000     0.751750000000     0.581200000000     0.428005   
C319     C      0.190270000000     0.755240000000     0.022030000000     0.426898   
C320     C      0.313480000000     0.751260000000     0.018490000000     0.427995   
C321     C      0.387860000000     0.780280000000     0.988160000000    -0.0106032  
C322     C      0.388610000000     0.720580000000     0.987830000000    -0.0112508  
C323     C      0.365660000000     0.779950000000     0.517010000000    -0.0102276  
C324     C      0.364520000000     0.720130000000     0.515550000000    -0.0109882  
C325     C      0.138170000000     0.726210000000     0.520770000000    -0.0104353  
C326     C      0.138730000000     0.785880000000     0.022120000000    -0.0107594  
C327     C      0.115420000000     0.726780000000     0.492270000000    -0.0105783  
C328     C      0.114070000000     0.786550000000     0.994850000000    -0.0114175  
C329     C      0.396170000000     0.527850000000     0.476400000000    -0.0110282  
C330     C      0.396180000000     0.968130000000     0.979540000000    -0.0100832  
C331     C      0.370730000000     0.529170000000     0.502920000000    -0.0109431  
C332     C      0.372570000000     0.969560000000     0.007190000000    -0.00934364 
C333     C      0.121950000000     0.964380000000     0.974840000000    -0.0111925  
C334     C      0.122680000000     0.523780000000     0.982240000000    -0.0103568  
C335     C      0.146100000000     0.960670000000     0.502210000000    -0.0102961  
C336     C      0.145010000000     0.519810000000     0.510640000000    -0.00953147 
C337     C      0.228680000000     0.741580000000     0.662640000000    -0.00939552 
C338     C      0.274160000000     0.781560000000     0.661680000000    -0.0102358  
C339     C      0.241730000000     0.726410000000     0.632240000000    -0.00898597 
C340     C      0.284000000000     0.769390000000     0.628720000000    -0.0100336  
C341     C      0.228780000000     0.734760000000     0.909640000000    -0.0095074  
C342     C      0.268250000000     0.780620000000     0.910490000000    -0.00981796 
C343     C      0.246240000000     0.720810000000     0.880870000000    -0.00881228 
C344     C      0.287400000000     0.764910000000     0.883550000000    -0.00942126 
C345     C      0.231470000000     0.011420000000     0.613730000000    -0.014909   
C346     C      0.272800000000     0.967390000000     0.615470000000    -0.00913369 
C347     C      0.244300000000     0.524460000000     0.645160000000    -0.00977842 
C348     C      0.288280000000     0.482760000000     0.644570000000    -0.00887214 
C349     C      0.290570000000     0.989770000000     0.865430000000    -0.00322188 
C350     C      0.245190000000     0.529830000000     0.864770000000    -0.00963392 
C351     C      0.274730000000     0.972710000000     0.893370000000    -0.0100951  
C352     C      0.232050000000     0.515570000000     0.895650000000    -0.00972115 
C353     C      0.226630000000     0.892240000000     0.756760000000    -0.0117035  
C354     C      0.287310000000     0.889720000000     0.757820000000    -0.0101531  
C355     C      0.225330000000     0.863910000000     0.780130000000    -0.0110774  
C356     C      0.285520000000     0.864640000000     0.783730000000    -0.00958625 
C357     C      0.299550000000     0.613650000000     0.747300000000    -0.0110459  
C358     C      0.239360000000     0.614390000000     0.743350000000    -0.00966871 
C359     C      0.298190000000     0.642620000000     0.769810000000    -0.0114992  
C360     C      0.237470000000     0.640040000000     0.768660000000    -0.0100334  
C361     C      0.472070000000     0.763910000000     0.598540000000    -0.00926675 
C362     C      0.014180000000     0.720610000000     0.598290000000    -0.00950198 
C363     C      0.484610000000     0.775630000000     0.630600000000    -0.0100434  
C364     C      0.029340000000     0.734780000000     0.628130000000    -0.00883456 
C365     C      0.473820000000     0.741710000000     0.880030000000    -0.0089988  
C366     C      0.017220000000     0.783680000000     0.878750000000    -0.00913398 
C367     C      0.486700000000     0.727480000000     0.849220000000    -0.00972959 
C368     C      0.032050000000     0.767740000000     0.849470000000    -0.0093908  
C369     C      0.523030000000     0.967130000000     0.621530000000    -0.0103161  
C370     C      0.476810000000     0.506030000000     0.618260000000    -0.00942395 
C371     C      0.034770000000     0.978400000000     0.588740000000    -0.0100745  
C372     C      0.992040000000     0.521250000000     0.589010000000    -0.00855658 
C373     C      0.022640000000     0.531440000000     0.839300000000    -0.00974082 
C374     C      0.475460000000     0.993510000000     0.840280000000    -0.00373864 
C375     C      0.036210000000     0.515390000000     0.869130000000    -0.00971048 
C376     C      0.491340000000     0.974820000000     0.867230000000    -0.0104682  
C377     C      0.033020000000     0.891900000000     0.750170000000    -0.0105142  
C378     C      0.472610000000     0.891000000000     0.748370000000    -0.0104256  
C379     C      0.034330000000     0.861620000000     0.730070000000    -0.0104509  
C380     C      0.473630000000     0.860480000000     0.728640000000    -0.0104081  
C381     C      0.034370000000     0.637950000000     0.741230000000    -0.0106525  
C382     C      0.973770000000     0.638770000000     0.743500000000    -0.0103934  
C383     C      0.532780000000     0.612160000000     0.715560000000    -0.0105419  
C384     C      0.472450000000     0.612920000000     0.717950000000    -0.0104039  
C385     C      0.001190000000     0.008180000000     0.289730000000     0.427659   
C386     C      0.002320000000     0.494000000000     0.169480000000     0.427161   
C387     C      0.502190000000     0.061720000000     0.222220000000     0.428112   
C388     C      0.502430000000     0.441160000000     0.237980000000     0.428985   
C389     C      0.006130000000     0.251110000000     0.299570000000     0.42999    
C390     C      0.004410000000     0.249630000000     0.178840000000     0.43038    
C391     C      0.504750000000     0.310860000000     0.236970000000     0.42858    
C392     C      0.504700000000     0.189310000000     0.240440000000     0.428611   
C393     C      0.763600000000     0.000320000000     0.194530000000     0.427216   
C394     C      0.764960000000     0.005530000000     0.315260000000     0.430358   
C395     C      0.767750000000     0.063280000000     0.251310000000     0.42817    
C396     C      0.759740000000     0.441870000000     0.257540000000     0.427282   
C397     C      0.763880000000     0.248500000000     0.332390000000     0.429128   
C398     C      0.757120000000     0.256380000000     0.211680000000     0.427878   
C399     C      0.765020000000     0.192120000000     0.268540000000     0.427845   
C400     C      0.757050000000     0.313420000000     0.276510000000     0.427815   
C401     C      0.010080000000     0.996630000000     0.418160000000     0.432143   
C402     C      0.009580000000     0.996630000000     0.039130000000     0.43073    
C403     C      0.947840000000     0.497680000000     0.478440000000     0.428274   
C404     C      0.570740000000     0.495040000000     0.478490000000     0.429627   
C405     C      0.001700000000     0.257560000000     0.428830000000     0.430041   
C406     C      0.999470000000     0.248600000000     0.049170000000     0.430411   
C407     C      0.939950000000     0.251390000000     0.487820000000     0.427586   
C408     C      0.563090000000     0.255340000000     0.491010000000     0.426439   
C409     C      0.758030000000     0.992970000000     0.065100000000     0.435221   
C410     C      0.757680000000     0.995580000000     0.444300000000     0.434274   
C411     C      0.820020000000     0.497420000000     0.004580000000     0.429481   
C412     C      0.697130000000     0.491650000000     0.005470000000     0.430923   
C413     C      0.750330000000     0.255130000000     0.460180000000     0.428885   
C414     C      0.754760000000     0.251760000000     0.081200000000     0.428069   
C415     C      0.690270000000     0.255240000000     0.522030000000     0.426914   
C416     C      0.813480000000     0.251260000000     0.518490000000     0.427943   
C417     C      0.887860000000     0.280280000000     0.488160000000    -0.0102389  
C418     C      0.888610000000     0.220580000000     0.487830000000    -0.0109271  
C419     C      0.865660000000     0.279950000000     0.017010000000    -0.00985053 
C420     C      0.864520000000     0.220130000000     0.015550000000    -0.0106247  
C421     C      0.638170000000     0.226210000000     0.020780000000    -0.0101126  
C422     C      0.638730000000     0.285880000000     0.522120000000    -0.0110468  
C423     C      0.615420000000     0.226780000000     0.992270000000    -0.0108846  
C424     C      0.614070000000     0.286550000000     0.494850000000    -0.0111094  
C425     C      0.896170000000     0.027850000000     0.976410000000    -0.0130937  
C426     C      0.896180000000     0.468130000000     0.479540000000    -0.0100229  
C427     C      0.870730000000     0.029170000000     0.002920000000    -0.0118428  
C428     C      0.872570000000     0.469560000000     0.507190000000    -0.00994181 
C429     C      0.621950000000     0.464390000000     0.474840000000    -0.0108602  
C430     C      0.622670000000     0.023780000000     0.482240000000    -0.0116531  
C431     C      0.646100000000     0.460670000000     0.002210000000    -0.00983454 
C432     C      0.645010000000     0.019810000000     0.010640000000    -0.0108165  
C433     C      0.728680000000     0.241580000000     0.162640000000    -0.00938297 
C434     C      0.774160000000     0.281560000000     0.161680000000    -0.010222   
C435     C      0.741730000000     0.226410000000     0.132240000000    -0.00900598 
C436     C      0.784000000000     0.269390000000     0.128720000000    -0.010041   
C437     C      0.728780000000     0.234760000000     0.409640000000    -0.0095582  
C438     C      0.768250000000     0.280610000000     0.410490000000    -0.00969527 
C439     C      0.746240000000     0.220820000000     0.380870000000    -0.00867699 
C440     C      0.787400000000     0.264910000000     0.383550000000    -0.00940839 
C441     C      0.731470000000     0.511420000000     0.113730000000    -0.00925908 
C442     C      0.772800000000     0.467390000000     0.115470000000    -0.00881505 
C443     C      0.744300000000     0.024460000000     0.145160000000    -0.00865178 
C444     C      0.788280000000     0.982760000000     0.144570000000    -0.00681151 
C445     C      0.790570000000     0.489770000000     0.365430000000    -0.00909393 
C446     C      0.745190000000     0.029830000000     0.364770000000    -0.0092046  
C447     C      0.774730000000     0.472710000000     0.393370000000    -0.00894369 
C448     C      0.732050000000     0.015570000000     0.395650000000    -0.0118576  
C449     C      0.726630000000     0.392240000000     0.256760000000    -0.0116561  
C450     C      0.787310000000     0.389720000000     0.257820000000    -0.010117   
C451     C      0.725330000000     0.363920000000     0.280130000000    -0.011131   
C452     C      0.785520000000     0.364640000000     0.283730000000    -0.00959595 
C453     C      0.799550000000     0.113650000000     0.247300000000    -0.0110437  
C454     C      0.739360000000     0.114390000000     0.243360000000    -0.00959682 
C455     C      0.798190000000     0.142620000000     0.269810000000    -0.0115085  
C456     C      0.737470000000     0.140040000000     0.268660000000    -0.0100165  
C457     C      0.972070000000     0.263910000000     0.098540000000    -0.00933182 
C458     C      0.514180000000     0.220610000000     0.098290000000    -0.00909041 
C459     C      0.984610000000     0.275630000000     0.130600000000    -0.00986021 
C460     C      0.529340000000     0.234780000000     0.128130000000    -0.0089033  
C461     C      0.973820000000     0.241720000000     0.380040000000    -0.00910069 
C462     C      0.517220000000     0.283680000000     0.378750000000    -0.00893223 
C463     C      0.986700000000     0.227480000000     0.349220000000    -0.00929654 
C464     C      0.532050000000     0.267740000000     0.349470000000    -0.00943126 
C465     C      0.023030000000     0.467130000000     0.121530000000    -0.0103763  
C466     C      0.976810000000     0.006030000000     0.118260000000    -0.0147854  
C467     C      0.534770000000     0.478400000000     0.088740000000    -0.0104122  
C468     C      0.492040000000     0.021250000000     0.089010000000    -0.00960482 
C469     C      0.522640000000     0.031440000000     0.339300000000    -0.00828388 
C470     C      0.975460000000     0.493500000000     0.340280000000    -0.00963248 
C471     C      0.536210000000     0.015390000000     0.369130000000    -0.0154262  
C472     C      0.991340000000     0.474820000000     0.367230000000    -0.00872135 
C473     C      0.533020000000     0.391900000000     0.250170000000    -0.0105089  
C474     C      0.972610000000     0.391000000000     0.248370000000    -0.0102465  
C475     C      0.534330000000     0.361620000000     0.230070000000    -0.010383   
C476     C      0.973630000000     0.360480000000     0.228640000000    -0.0102939  
C477     C      0.534370000000     0.137950000000     0.241230000000    -0.0106504  
C478     C      0.473770000000     0.138780000000     0.243500000000    -0.0104862  
C479     C      0.032780000000     0.112160000000     0.215560000000    -0.0105626  
C480     C      0.972450000000     0.112920000000     0.217950000000    -0.0103098  
C481     C      0.001190000000     0.008180000000     0.789730000000     0.427661   
C482     C      0.002320000000     0.494000000000     0.669480000000     0.42716    
C483     C      0.502190000000     0.061720000000     0.722220000000     0.428111   
C484     C      0.502430000000     0.441160000000     0.737980000000     0.429007   
C485     C      0.006130000000     0.251110000000     0.799570000000     0.429869   
C486     C      0.004410000000     0.249630000000     0.678840000000     0.430376   
C487     C      0.504750000000     0.310860000000     0.736970000000     0.428577   
C488     C      0.504700000000     0.189310000000     0.740430000000     0.428618   
C489     C      0.763600000000     0.000320000000     0.694530000000     0.427218   
C490     C      0.764960000000     0.005530000000     0.815260000000     0.430427   
C491     C      0.767750000000     0.063280000000     0.751310000000     0.428168   
C492     C      0.759740000000     0.441870000000     0.757540000000     0.427538   
C493     C      0.763880000000     0.248500000000     0.832390000000     0.42922    
C494     C      0.757120000000     0.256380000000     0.711680000000     0.427843   
C495     C      0.765020000000     0.192120000000     0.768540000000     0.427562   
C496     C      0.757040000000     0.313420000000     0.776510000000     0.427764   
C497     C      0.010080000000     0.996630000000     0.918160000000     0.432239   
C498     C      0.009580000000     0.996630000000     0.539130000000     0.430778   
C499     C      0.947840000000     0.497680000000     0.978440000000     0.42821    
C500     C      0.570740000000     0.495040000000     0.978490000000     0.429561   
C501     C      0.001700000000     0.257560000000     0.928830000000     0.430018   
C502     C      0.999470000000     0.248600000000     0.549170000000     0.430529   
C503     C      0.939950000000     0.251390000000     0.987820000000     0.427563   
C504     C      0.563090000000     0.255340000000     0.991010000000     0.42632    
C505     C      0.758030000000     0.992970000000     0.565090000000     0.435247   
C506     C      0.757680000000     0.995580000000     0.944300000000     0.434278   
C507     C      0.820020000000     0.497420000000     0.504580000000     0.429369   
C508     C      0.697130000000     0.491650000000     0.505480000000     0.430808   
C509     C      0.750340000000     0.255130000000     0.960180000000     0.428932   
C510     C      0.754760000000     0.251760000000     0.581200000000     0.428033   
C511     C      0.690270000000     0.255240000000     0.022030000000     0.426933   
C512     C      0.813480000000     0.251260000000     0.018490000000     0.428082   
C513     C      0.887860000000     0.280280000000     0.988160000000    -0.0105922  
C514     C      0.888610000000     0.220580000000     0.987830000000    -0.0112544  
C515     C      0.865660000000     0.279950000000     0.517010000000    -0.0102195  
C516     C      0.864520000000     0.220130000000     0.515550000000    -0.0109774  
C517     C      0.638180000000     0.226210000000     0.520770000000    -0.0103858  
C518     C      0.638730000000     0.285880000000     0.022120000000    -0.0107317  
C519     C      0.615420000000     0.226780000000     0.492270000000    -0.0105897  
C520     C      0.614070000000     0.286550000000     0.994850000000    -0.0114121  
C521     C      0.896170000000     0.027850000000     0.476400000000    -0.0126823  
C522     C      0.896180000000     0.468130000000     0.979540000000    -0.0103508  
C523     C      0.870730000000     0.029170000000     0.502920000000    -0.0126102  
C524     C      0.872570000000     0.469560000000     0.007190000000    -0.00957699 
C525     C      0.621950000000     0.464390000000     0.974840000000    -0.011325   
C526     C      0.622670000000     0.023780000000     0.982240000000    -0.0119839  
C527     C      0.646100000000     0.460670000000     0.502210000000    -0.010622   
C528     C      0.645010000000     0.019810000000     0.510640000000    -0.0111509  
C529     C      0.728680000000     0.241580000000     0.662640000000    -0.00937324 
C530     C      0.774160000000     0.281560000000     0.661680000000    -0.0102426  
C531     C      0.741730000000     0.226410000000     0.632240000000    -0.00904634 
C532     C      0.784000000000     0.269390000000     0.628720000000    -0.00998795 
C533     C      0.728780000000     0.234760000000     0.909640000000    -0.00953155 
C534     C      0.768250000000     0.280610000000     0.910490000000    -0.00971503 
C535     C      0.746240000000     0.220820000000     0.880870000000    -0.00869836 
C536     C      0.787400000000     0.264910000000     0.883550000000    -0.00941009 
C537     C      0.731470000000     0.511420000000     0.613730000000    -0.0092751  
C538     C      0.772800000000     0.467390000000     0.615470000000    -0.00887725 
C539     C      0.744300000000     0.024460000000     0.645160000000    -0.00865653 
C540     C      0.788270000000     0.982760000000     0.644570000000    -0.00669616 
C541     C      0.790570000000     0.489770000000     0.865430000000    -0.00906361 
C542     C      0.745190000000     0.029830000000     0.864770000000    -0.0092031  
C543     C      0.774730000000     0.472710000000     0.893370000000    -0.00898036 
C544     C      0.732050000000     0.015570000000     0.895650000000    -0.0118544  
C545     C      0.726630000000     0.392240000000     0.756760000000    -0.0116406  
C546     C      0.787310000000     0.389720000000     0.757820000000    -0.0100929  
C547     C      0.725330000000     0.363920000000     0.780130000000    -0.0111463  
C548     C      0.785520000000     0.364640000000     0.783730000000    -0.00963474 
C549     C      0.799540000000     0.113650000000     0.747300000000    -0.0109212  
C550     C      0.739360000000     0.114390000000     0.743350000000    -0.0096622  
C551     C      0.798190000000     0.142620000000     0.769810000000    -0.0115695  
C552     C      0.737470000000     0.140040000000     0.768660000000    -0.0100427  
C553     C      0.972070000000     0.263910000000     0.598540000000    -0.00933244 
C554     C      0.514180000000     0.220610000000     0.598290000000    -0.00908138 
C555     C      0.984610000000     0.275630000000     0.630600000000    -0.00986207 
C556     C      0.529340000000     0.234780000000     0.628130000000    -0.00891281 
C557     C      0.973820000000     0.241720000000     0.880030000000    -0.00911239 
C558     C      0.517220000000     0.283680000000     0.878750000000    -0.00897561 
C559     C      0.986700000000     0.227480000000     0.849220000000    -0.0092877  
C560     C      0.532050000000     0.267740000000     0.849470000000    -0.0094195  
C561     C      0.023030000000     0.467130000000     0.621530000000    -0.0103789  
C562     C      0.976810000000     0.006030000000     0.618260000000    -0.0147886  
C563     C      0.534770000000     0.478400000000     0.588740000000    -0.0104204  
C564     C      0.492040000000     0.021250000000     0.589010000000    -0.00960136 
C565     C      0.522640000000     0.031440000000     0.839300000000    -0.00831496 
C566     C      0.975460000000     0.493500000000     0.840280000000    -0.00960554 
C567     C      0.536200000000     0.015390000000     0.869130000000    -0.0153484  
C568     C      0.991340000000     0.474820000000     0.867230000000    -0.00873116 
C569     C      0.533020000000     0.391900000000     0.750170000000    -0.0104346  
C570     C      0.972610000000     0.391000000000     0.748370000000    -0.0102476  
C571     C      0.534330000000     0.361620000000     0.730070000000    -0.010438   
C572     C      0.973630000000     0.360480000000     0.728640000000    -0.0102872  
C573     C      0.534370000000     0.137950000000     0.741230000000    -0.0106135  
C574     C      0.473780000000     0.138780000000     0.743500000000    -0.0103582  
C575     C      0.032780000000     0.112160000000     0.715560000000    -0.0105685  
C576     C      0.972450000000     0.112920000000     0.717950000000    -0.0102631  
C577     C      0.001190000000     0.508180000000     0.289730000000     0.428161   
C578     C      0.002320000000     0.994000000000     0.169480000000     0.42659    
C579     C      0.502190000000     0.561720000000     0.222220000000     0.428645   
C580     C      0.502430000000     0.941160000000     0.237980000000     0.428295   
C581     C      0.006130000000     0.751100000000     0.299570000000     0.429995   
C582     C      0.004410000000     0.749630000000     0.178840000000     0.43038    
C583     C      0.504750000000     0.810850000000     0.236970000000     0.428678   
C584     C      0.504700000000     0.689310000000     0.240440000000     0.428539   
C585     C      0.763600000000     0.500320000000     0.194530000000     0.431248   
C586     C      0.764960000000     0.505530000000     0.315260000000     0.430797   
C587     C      0.767750000000     0.563280000000     0.251310000000     0.428369   
C588     C      0.759740000000     0.941870000000     0.257540000000     0.426741   
C589     C      0.763880000000     0.748500000000     0.332390000000     0.429144   
C590     C      0.757120000000     0.756380000000     0.211680000000     0.427874   
C591     C      0.765020000000     0.692120000000     0.268540000000     0.427839   
C592     C      0.757050000000     0.813420000000     0.276510000000     0.427817   
C593     C      0.010080000000     0.496630000000     0.418160000000     0.428724   
C594     C      0.009580000000     0.496630000000     0.039130000000     0.427157   
C595     C      0.947840000000     0.997680000000     0.478440000000     0.43187    
C596     C      0.570740000000     0.995040000000     0.478490000000     0.433448   
C597     C      0.001700000000     0.757560000000     0.428830000000     0.430032   
C598     C      0.999470000000     0.748600000000     0.049170000000     0.430671   
C599     C      0.939950000000     0.751390000000     0.487820000000     0.42758    
C600     C      0.563090000000     0.755340000000     0.491010000000     0.426433   
C601     C      0.758030000000     0.492970000000     0.065100000000     0.431574   
C602     C      0.757680000000     0.495580000000     0.444300000000     0.430666   
C603     C      0.820020000000     0.997420000000     0.004580000000     0.432796   
C604     C      0.697130000000     0.991650000000     0.005470000000     0.434252   
C605     C      0.750330000000     0.755140000000     0.460180000000     0.42884    
C606     C      0.754760000000     0.751750000000     0.081200000000     0.428028   
C607     C      0.690270000000     0.755240000000     0.522030000000     0.426872   
C608     C      0.813480000000     0.751260000000     0.518490000000     0.427904   
C609     C      0.887860000000     0.780280000000     0.488160000000    -0.0102455  
C610     C      0.888610000000     0.720580000000     0.487830000000    -0.0109323  
C611     C      0.865660000000     0.779950000000     0.017010000000    -0.00985819 
C612     C      0.864520000000     0.720130000000     0.015550000000    -0.010634   
C613     C      0.638170000000     0.726210000000     0.020780000000    -0.0101222  
C614     C      0.638730000000     0.785880000000     0.522120000000    -0.0110983  
C615     C      0.615420000000     0.726780000000     0.992270000000    -0.0108913  
C616     C      0.614070000000     0.786550000000     0.494850000000    -0.011102   
C617     C      0.896170000000     0.527850000000     0.976410000000    -0.0114508  
C618     C      0.896180000000     0.968130000000     0.479540000000    -0.009755   
C619     C      0.870730000000     0.529170000000     0.002920000000    -0.010169   
C620     C      0.872570000000     0.969560000000     0.507190000000    -0.00970937 
C621     C      0.621950000000     0.964380000000     0.474840000000    -0.0107249  
C622     C      0.622670000000     0.523780000000     0.482240000000    -0.00998443 
C623     C      0.646100000000     0.960670000000     0.002210000000    -0.00950924 
C624     C      0.645010000000     0.519810000000     0.010640000000    -0.00921208 
C625     C      0.728680000000     0.741580000000     0.162640000000    -0.00939524 
C626     C      0.774160000000     0.781560000000     0.161680000000    -0.0102353  
C627     C      0.741730000000     0.726410000000     0.132240000000    -0.00898781 
C628     C      0.784000000000     0.769390000000     0.128720000000    -0.0100359  
C629     C      0.728780000000     0.734760000000     0.409640000000    -0.00952713 
C630     C      0.768250000000     0.780620000000     0.410490000000    -0.00982497 
C631     C      0.746240000000     0.720810000000     0.380870000000    -0.00879354 
C632     C      0.787400000000     0.764910000000     0.383550000000    -0.00936295 
C633     C      0.731470000000     0.011420000000     0.113730000000    -0.0148969  
C634     C      0.772800000000     0.967390000000     0.115470000000    -0.00911763 
C635     C      0.744300000000     0.524460000000     0.145160000000    -0.00977016 
C636     C      0.788280000000     0.482760000000     0.144570000000    -0.00887702 
C637     C      0.790570000000     0.989770000000     0.365430000000    -0.00323225 
C638     C      0.745190000000     0.529830000000     0.364770000000    -0.00963592 
C639     C      0.774730000000     0.972710000000     0.393370000000    -0.0100923  
C640     C      0.732050000000     0.515570000000     0.395650000000    -0.0097224  
C641     C      0.726630000000     0.892240000000     0.256760000000    -0.0117051  
C642     C      0.787310000000     0.889720000000     0.257820000000    -0.0101528  
C643     C      0.725330000000     0.863910000000     0.280130000000    -0.0110775  
C644     C      0.785520000000     0.864640000000     0.283730000000    -0.00958396 
C645     C      0.799550000000     0.613650000000     0.247300000000    -0.0110451  
C646     C      0.739360000000     0.614390000000     0.243360000000    -0.0095973  
C647     C      0.798190000000     0.642620000000     0.269810000000    -0.0115015  
C648     C      0.737470000000     0.640040000000     0.268660000000    -0.0100215  
C649     C      0.972070000000     0.763910000000     0.098540000000    -0.00929344 
C650     C      0.514180000000     0.720610000000     0.098290000000    -0.00909018 
C651     C      0.984610000000     0.775630000000     0.130600000000    -0.00988409 
C652     C      0.529340000000     0.734780000000     0.128130000000    -0.00891039 
C653     C      0.973820000000     0.741710000000     0.380040000000    -0.00915683 
C654     C      0.517220000000     0.783680000000     0.378750000000    -0.0089456  
C655     C      0.986700000000     0.727480000000     0.349220000000    -0.00928841 
C656     C      0.532050000000     0.767740000000     0.349470000000    -0.00942417 
C657     C      0.023030000000     0.967130000000     0.121530000000    -0.0103701  
C658     C      0.976810000000     0.506030000000     0.118260000000    -0.00937332 
C659     C      0.534770000000     0.978400000000     0.088740000000    -0.0100756  
C660     C      0.492040000000     0.521250000000     0.089010000000    -0.00896202 
C661     C      0.522640000000     0.531440000000     0.339300000000    -0.00973751 
C662     C      0.975460000000     0.993510000000     0.340280000000    -0.00367871 
C663     C      0.536210000000     0.515390000000     0.369130000000    -0.00965906 
C664     C      0.991340000000     0.974820000000     0.367230000000    -0.010074   
C665     C      0.533020000000     0.891900000000     0.250170000000    -0.0105696  
C666     C      0.972610000000     0.891000000000     0.248370000000    -0.0103024  
C667     C      0.534330000000     0.861620000000     0.230070000000    -0.0103776  
C668     C      0.973630000000     0.860480000000     0.228640000000    -0.0102919  
C669     C      0.534370000000     0.637950000000     0.241230000000    -0.0106668  
C670     C      0.473770000000     0.638770000000     0.243500000000    -0.0105256  
C671     C      0.032780000000     0.612160000000     0.215560000000    -0.0105495  
C672     C      0.972450000000     0.612920000000     0.217950000000    -0.0102779  
C673     C      0.001190000000     0.508180000000     0.789730000000     0.428163   
C674     C      0.002320000000     0.994000000000     0.669480000000     0.426589   
C675     C      0.502190000000     0.561720000000     0.722220000000     0.428644   
C676     C      0.502430000000     0.941160000000     0.737980000000     0.428317   
C677     C      0.006130000000     0.751100000000     0.799570000000     0.429874   
C678     C      0.004410000000     0.749630000000     0.678840000000     0.430375   
C679     C      0.504750000000     0.810850000000     0.736970000000     0.428676   
C680     C      0.504700000000     0.689310000000     0.740430000000     0.428545   
C681     C      0.763600000000     0.500320000000     0.694530000000     0.431249   
C682     C      0.764960000000     0.505530000000     0.815260000000     0.430865   
C683     C      0.767750000000     0.563280000000     0.751310000000     0.428367   
C684     C      0.759740000000     0.941870000000     0.757540000000     0.426996   
C685     C      0.763880000000     0.748500000000     0.832390000000     0.429236   
C686     C      0.757120000000     0.756380000000     0.711680000000     0.427839   
C687     C      0.765020000000     0.692120000000     0.768540000000     0.427556   
C688     C      0.757040000000     0.813420000000     0.776510000000     0.427766   
C689     C      0.010080000000     0.496630000000     0.918160000000     0.428827   
C690     C      0.009580000000     0.496630000000     0.539130000000     0.427202   
C691     C      0.947840000000     0.997680000000     0.978440000000     0.431798   
C692     C      0.570740000000     0.995040000000     0.978490000000     0.433373   
C693     C      0.001700000000     0.757560000000     0.928830000000     0.430009   
C694     C      0.999470000000     0.748600000000     0.549170000000     0.430789   
C695     C      0.939950000000     0.751390000000     0.987820000000     0.427557   
C696     C      0.563090000000     0.755340000000     0.991010000000     0.426313   
C697     C      0.758030000000     0.492970000000     0.565090000000     0.431596   
C698     C      0.757680000000     0.495580000000     0.944300000000     0.430677   
C699     C      0.820020000000     0.997420000000     0.504580000000     0.432688   
C700     C      0.697130000000     0.991650000000     0.505480000000     0.43414    
C701     C      0.750340000000     0.755140000000     0.960180000000     0.428888   
C702     C      0.754760000000     0.751750000000     0.581200000000     0.427992   
C703     C      0.690270000000     0.755240000000     0.022030000000     0.426892   
C704     C      0.813480000000     0.751260000000     0.018490000000     0.428043   
C705     C      0.887860000000     0.780280000000     0.988160000000    -0.0106008  
C706     C      0.888610000000     0.720580000000     0.987830000000    -0.0112617  
C707     C      0.865660000000     0.779950000000     0.517010000000    -0.0102287  
C708     C      0.864520000000     0.720130000000     0.515550000000    -0.0109884  
C709     C      0.638180000000     0.726210000000     0.520770000000    -0.0103973  
C710     C      0.638730000000     0.785880000000     0.022120000000    -0.0107815  
C711     C      0.615420000000     0.726780000000     0.492270000000    -0.0105942  
C712     C      0.614070000000     0.786550000000     0.994850000000    -0.0114068  
C713     C      0.896170000000     0.527850000000     0.476400000000    -0.0110305  
C714     C      0.896180000000     0.968130000000     0.979540000000    -0.0100841  
C715     C      0.870730000000     0.529170000000     0.502920000000    -0.0109422  
C716     C      0.872570000000     0.969560000000     0.007190000000    -0.00934464 
C717     C      0.621950000000     0.964380000000     0.974840000000    -0.0111916  
C718     C      0.622670000000     0.523780000000     0.982240000000    -0.0103229  
C719     C      0.646100000000     0.960670000000     0.502210000000    -0.010298   
C720     C      0.645010000000     0.519810000000     0.510640000000    -0.0095489  
C721     C      0.728680000000     0.741580000000     0.662640000000    -0.00938552 
C722     C      0.774160000000     0.781560000000     0.661680000000    -0.0102559  
C723     C      0.741730000000     0.726410000000     0.632240000000    -0.00902816 
C724     C      0.784000000000     0.769390000000     0.628720000000    -0.00998291 
C725     C      0.728780000000     0.734760000000     0.909640000000    -0.00950044 
C726     C      0.768250000000     0.780620000000     0.910490000000    -0.00984474 
C727     C      0.746240000000     0.720810000000     0.880870000000    -0.00881494 
C728     C      0.787400000000     0.764910000000     0.883550000000    -0.00936463 
C729     C      0.731470000000     0.011420000000     0.613730000000    -0.0149139  
C730     C      0.772800000000     0.967390000000     0.615470000000    -0.00918056 
C731     C      0.744300000000     0.524460000000     0.645160000000    -0.00977562 
C732     C      0.788270000000     0.482760000000     0.644570000000    -0.00876243 
C733     C      0.790570000000     0.989770000000     0.865430000000    -0.0032106  
C734     C      0.745190000000     0.529830000000     0.864770000000    -0.00963373 
C735     C      0.774730000000     0.972710000000     0.893370000000    -0.0101276  
C736     C      0.732050000000     0.515570000000     0.895650000000    -0.00972264 
C737     C      0.726630000000     0.892240000000     0.756760000000    -0.0116896  
C738     C      0.787310000000     0.889720000000     0.757820000000    -0.0101288  
C739     C      0.725330000000     0.863910000000     0.780130000000    -0.0110928  
C740     C      0.785520000000     0.864640000000     0.783730000000    -0.00962273 
C741     C      0.799540000000     0.613650000000     0.747300000000    -0.0109225  
C742     C      0.739360000000     0.614390000000     0.743350000000    -0.00966269 
C743     C      0.798190000000     0.642620000000     0.769810000000    -0.0115625  
C744     C      0.737470000000     0.640040000000     0.768660000000    -0.0100477  
C745     C      0.972070000000     0.763910000000     0.598540000000    -0.00929407 
C746     C      0.514180000000     0.720610000000     0.598290000000    -0.00908112 
C747     C      0.984610000000     0.775630000000     0.630600000000    -0.00988596 
C748     C      0.529340000000     0.734780000000     0.628130000000    -0.00891993 
C749     C      0.973820000000     0.741710000000     0.880030000000    -0.00916849 
C750     C      0.517220000000     0.783680000000     0.878750000000    -0.00898898 
C751     C      0.986700000000     0.727480000000     0.849220000000    -0.00927954 
C752     C      0.532050000000     0.767740000000     0.849470000000    -0.00941239 
C753     C      0.023030000000     0.967130000000     0.621530000000    -0.0103727  
C754     C      0.976810000000     0.506030000000     0.618260000000    -0.00937622 
C755     C      0.534770000000     0.978400000000     0.588740000000    -0.0100837  
C756     C      0.492040000000     0.521250000000     0.589010000000    -0.0089579  
C757     C      0.522640000000     0.531440000000     0.839300000000    -0.00976599 
C758     C      0.975460000000     0.993510000000     0.840280000000    -0.00365985 
C759     C      0.536200000000     0.515390000000     0.869130000000    -0.0095934  
C760     C      0.991340000000     0.974820000000     0.867230000000    -0.010081   
C761     C      0.533020000000     0.891900000000     0.750170000000    -0.0104954  
C762     C      0.972610000000     0.891000000000     0.748370000000    -0.0103035  
C763     C      0.534330000000     0.861620000000     0.730070000000    -0.0104326  
C764     C      0.973630000000     0.860480000000     0.728640000000    -0.0102852  
C765     C      0.534370000000     0.637950000000     0.741230000000    -0.0106299  
C766     C      0.473780000000     0.638770000000     0.743500000000    -0.0103977  
C767     C      0.032780000000     0.612160000000     0.715560000000    -0.0105554  
C768     C      0.972450000000     0.612920000000     0.717950000000    -0.0102312  
H1       H      0.374680000000     0.218850000000     0.465340000000     0.0386235  
H2       H      0.372680000000     0.281340000000     0.466410000000     0.0388545  
H3       H      0.350690000000     0.301910000000     0.516800000000     0.0433128  
H4       H      0.404390000000     0.199240000000     0.989390000000     0.043425   
H5       H      0.348510000000     0.199040000000     0.013070000000     0.0434713  
H6       H      0.378410000000     0.217310000000     0.037960000000     0.0392473  
H7       H      0.402920000000     0.302170000000     0.488830000000     0.0432944  
H8       H      0.380840000000     0.280540000000     0.038770000000     0.0387335  
H9       H      0.125250000000     0.287360000000     0.044900000000     0.0395912  
H10      H      0.123350000000     0.224640000000     0.042730000000     0.0387763  
H11      H      0.100420000000     0.204840000000     0.992610000000     0.0430206  
H12      H      0.154460000000     0.307260000000     0.520440000000     0.0434097  
H13      H      0.098000000000     0.307510000000     0.497930000000     0.0437059  
H14      H      0.127530000000     0.289950000000     0.472270000000     0.0390765  
H15      H      0.153280000000     0.204390000000     0.019510000000     0.0435251  
H16      H      0.130180000000     0.226440000000     0.470230000000     0.039801   
H17      H      0.382120000000     0.965620000000     0.457190000000     0.0395478  
H18      H      0.383390000000     0.028560000000     0.953210000000     0.0388156  
H19      H      0.354580000000     0.049870000000     0.998720000000     0.0430347  
H20      H      0.411490000000     0.446560000000     0.482090000000     0.0434693  
H21      H      0.357950000000     0.447370000000     0.507470000000     0.0435512  
H22      H      0.386670000000     0.470340000000     0.529650000000     0.0395342  
H23      H      0.411660000000     0.049410000000     0.977930000000     0.0435607  
H24      H      0.383430000000     0.533130000000     0.025830000000     0.038866   
H25      H      0.137700000000     0.027590000000     0.460700000000     0.0390022  
H26      H      0.135790000000     0.465270000000     0.452250000000     0.0389585  
H27      H      0.162030000000     0.439940000000     0.997350000000     0.0427374  
H28      H      0.107580000000     0.045360000000     0.485770000000     0.0433834  
H29      H      0.159880000000     0.041650000000     0.513400000000     0.0433877  
H30      H      0.129910000000     0.017400000000     0.032340000000     0.038019   
H31      H      0.106160000000     0.443010000000     0.973990000000     0.043892   
H32      H      0.132320000000     0.455590000000     0.024280000000     0.0387255  
H33      H      0.259180000000     0.303280000000     0.158360000000     0.0387184  
H34      H      0.209670000000     0.259140000000     0.156250000000     0.0424176  
H35      H      0.221440000000     0.215400000000     0.118860000000     0.038607   
H36      H      0.296070000000     0.288910000000     0.175040000000     0.0408653  
H37      H      0.291850000000     0.289850000000     0.113790000000     0.0408161  
H38      H      0.305300000000     0.253580000000     0.131730000000     0.0384552  
H39      H      0.217550000000     0.222680000000     0.177600000000     0.0394641  
H40      H      0.259190000000     0.207370000000     0.138700000000     0.0420007  
H41      H      0.251090000000     0.298060000000     0.400030000000     0.0417769  
H42      H      0.207950000000     0.248900000000     0.400810000000     0.0399159  
H43      H      0.228500000000     0.209200000000     0.364780000000     0.039946   
H44      H      0.285210000000     0.293700000000     0.426290000000     0.0394116  
H45      H      0.299310000000     0.283690000000     0.369040000000     0.03861    
H46      H      0.306350000000     0.249430000000     0.394110000000     0.0408028  
H47      H      0.218920000000     0.215100000000     0.424470000000     0.0405723  
H48      H      0.262890000000     0.201960000000     0.389550000000     0.0389945  
H49      H      0.255230000000     0.449040000000     0.123460000000     0.041922   
H50      H      0.210340000000     0.496000000000     0.119050000000     0.0386246  
H51      H      0.223810000000     0.033360000000     0.159740000000     0.0401953  
H52      H      0.291820000000     0.455500000000     0.101070000000     0.0391257  
H53      H      0.299530000000     0.463860000000     0.159440000000     0.0390679  
H54      H      0.307510000000     0.999420000000     0.136610000000     0.0429416  
H55      H      0.222680000000     0.031470000000     0.098770000000     0.0412471  
H56      H      0.259990000000     0.045260000000     0.139800000000     0.0385036  
H57      H      0.260110000000     0.050920000000     0.371060000000     0.0382535  
H58      H      0.308640000000     0.507010000000     0.374690000000     0.0416885  
H59      H      0.293710000000     0.460850000000     0.407850000000     0.0389067  
H60      H      0.224820000000     0.038520000000     0.349940000000     0.0404446  
H61      H      0.222660000000     0.034980000000     0.411080000000     0.0404269  
H62      H      0.211260000000     0.000020000000     0.389490000000     0.0378806  
H63      H      0.303290000000     0.471890000000     0.350450000000     0.0396893  
H64      H      0.258070000000     0.454150000000     0.384100000000     0.0418636  
H65      H      0.289060000000     0.377480000000     0.234460000000     0.0403339  
H66      H      0.223690000000     0.382670000000     0.232320000000     0.0392041  
H67      H      0.204220000000     0.348690000000     0.274260000000     0.0428367  
H68      H      0.309720000000     0.403840000000     0.261230000000     0.0434637  
H69      H      0.307850000000     0.350030000000     0.283170000000     0.0434847  
H70      H      0.284730000000     0.376980000000     0.307100000000     0.038479   
H71      H      0.205840000000     0.408250000000     0.261510000000     0.0435583  
H72      H      0.221620000000     0.373610000000     0.304420000000     0.0388318  
H73      H      0.240290000000     0.126160000000     0.219700000000     0.0383474  
H74      H      0.303460000000     0.122630000000     0.222760000000     0.0386211  
H75      H      0.318950000000     0.158530000000     0.264590000000     0.0434606  
H76      H      0.216990000000     0.099850000000     0.244200000000     0.0432405  
H77      H      0.215110000000     0.154090000000     0.264750000000     0.0433869  
H78      H      0.235580000000     0.128380000000     0.292300000000     0.0402028  
H79      H      0.320580000000     0.098550000000     0.253720000000     0.0428066  
H80      H      0.301190000000     0.133790000000     0.294520000000     0.0390113  
H81      H      0.996910000000     0.201620000000     0.105350000000     0.0416722  
H82      H      0.451250000000     0.247830000000     0.103060000000     0.0382808  
H83      H      0.463930000000     0.283460000000     0.145510000000     0.0411152  
H84      H      0.033470000000     0.209730000000     0.083450000000     0.0395912  
H85      H      0.040880000000     0.215360000000     0.142090000000     0.0390186  
H86      H      0.048300000000     0.252130000000     0.121050000000     0.0420957  
H87      H      0.462890000000     0.284490000000     0.084560000000     0.0407667  
H88      H      0.499920000000     0.296950000000     0.126280000000     0.0389565  
H89      H      0.500580000000     0.302870000000     0.370800000000     0.0414018  
H90      H      0.453880000000     0.258320000000     0.373900000000     0.0390677  
H91      H      0.466180000000     0.218680000000     0.334630000000     0.041537   
H92      H      0.036710000000     0.294570000000     0.393330000000     0.0387822  
H93      H      0.043800000000     0.286250000000     0.334490000000     0.0396805  
H94      H      0.050820000000     0.250570000000     0.357380000000     0.0420925  
H95      H      0.463400000000     0.222470000000     0.395040000000     0.0407988  
H96      H      0.001800000000     0.206470000000     0.355380000000     0.0395557  
H97      H      0.459040000000     0.987770000000     0.110490000000     0.0447727  
H98      H      0.508820000000     0.444940000000     0.118020000000     0.0380433  
H99      H      0.043070000000     0.457490000000     0.074700000000     0.0409229  
H100     H      0.463800000000     0.024750000000     0.131910000000     0.0411613  
H101     H      0.472700000000     0.032020000000     0.074150000000     0.038793   
H102     H      0.008720000000     0.040520000000     0.096720000000     0.0417825  
H103     H      0.044160000000     0.460750000000     0.136500000000     0.0414518  
H104     H      0.056160000000     0.493940000000     0.092450000000     0.0378802  
H105     H      0.458600000000     0.011290000000     0.350680000000     0.0387177  
H106     H      0.008890000000     0.052850000000     0.346950000000     0.0384096  
H107     H      0.047370000000     0.033690000000     0.384770000000     0.0414878  
H108     H      0.461320000000     0.476700000000     0.325320000000     0.0407714  
H109     H      0.472300000000     0.463440000000     0.382010000000     0.0392444  
H110     H      0.506750000000     0.455790000000     0.356850000000     0.0417224  
H111     H      0.042830000000     0.039860000000     0.324070000000     0.0402116  
H112     H      0.055750000000     0.498910000000     0.361560000000     0.0389173  
H113     H      0.470250000000     0.384250000000     0.273790000000     0.038572   
H114     H      0.533920000000     0.384910000000     0.275630000000     0.0389824  
H115     H      0.056010000000     0.347700000000     0.237040000000     0.0432209  
H116     H      0.450800000000     0.404870000000     0.241720000000     0.0428969  
H117     H      0.452120000000     0.345840000000     0.234540000000     0.0433271  
H118     H      0.971820000000     0.367150000000     0.203150000000     0.0387925  
H119     H      0.054780000000     0.406460000000     0.245030000000     0.0437493  
H120     H      0.037110000000     0.368590000000     0.204740000000     0.0397747  
H121     H      0.972660000000     0.126940000000     0.267100000000     0.0394411  
H122     H      0.037040000000     0.126050000000     0.264670000000     0.0394575  
H123     H      0.054570000000     0.096860000000     0.217340000000     0.0432128  
H124     H      0.452110000000     0.154190000000     0.241270000000     0.0438309  
H125     H      0.450510000000     0.098160000000     0.221550000000     0.0434585  
H126     H      0.470290000000     0.124790000000     0.194440000000     0.0393749  
H127     H      0.056150000000     0.152830000000     0.237170000000     0.0428995  
H128     H      0.533290000000     0.124090000000     0.191990000000     0.0386015  
H129     H      0.374680000000     0.218850000000     0.965340000000     0.0386327  
H130     H      0.372680000000     0.281340000000     0.966420000000     0.0388806  
H131     H      0.350690000000     0.301910000000     0.016800000000     0.0433217  
H132     H      0.404390000000     0.199240000000     0.489390000000     0.0434212  
H133     H      0.348510000000     0.199040000000     0.513070000000     0.0434407  
H134     H      0.378410000000     0.217310000000     0.537960000000     0.0392544  
H135     H      0.402910000000     0.302170000000     0.988830000000     0.0433044  
H136     H      0.380840000000     0.280540000000     0.538770000000     0.0387446  
H137     H      0.125250000000     0.287360000000     0.544900000000     0.0396016  
H138     H      0.123350000000     0.224640000000     0.542730000000     0.0387749  
H139     H      0.100420000000     0.204840000000     0.492610000000     0.0430221  
H140     H      0.154460000000     0.307260000000     0.020440000000     0.0434361  
H141     H      0.098000000000     0.307510000000     0.997930000000     0.0437073  
H142     H      0.127530000000     0.289950000000     0.972270000000     0.0390872  
H143     H      0.153280000000     0.204390000000     0.519510000000     0.0434925  
H144     H      0.130180000000     0.226440000000     0.970230000000     0.0398093  
H145     H      0.382120000000     0.965620000000     0.957190000000     0.0395622  
H146     H      0.383390000000     0.028560000000     0.453210000000     0.0387702  
H147     H      0.354580000000     0.049870000000     0.498720000000     0.0434272  
H148     H      0.411490000000     0.446560000000     0.982090000000     0.0434783  
H149     H      0.357950000000     0.447370000000     0.007470000000     0.0435715  
H150     H      0.386670000000     0.470340000000     0.029650000000     0.0395198  
H151     H      0.411660000000     0.049410000000     0.477930000000     0.0435237  
H152     H      0.383430000000     0.533130000000     0.525830000000     0.0389456  
H153     H      0.137700000000     0.027590000000     0.960700000000     0.0390099  
H154     H      0.135790000000     0.465270000000     0.952250000000     0.0390158  
H155     H      0.162030000000     0.439940000000     0.497350000000     0.0431384  
H156     H      0.107580000000     0.045360000000     0.985770000000     0.0433858  
H157     H      0.159880000000     0.041650000000     0.013400000000     0.0434106  
H158     H      0.129910000000     0.017400000000     0.532350000000     0.0380128  
H159     H      0.106160000000     0.443010000000     0.473990000000     0.0438374  
H160     H      0.132320000000     0.455590000000     0.524280000000     0.038802   
H161     H      0.259180000000     0.303280000000     0.658360000000     0.0387127  
H162     H      0.209670000000     0.259140000000     0.656250000000     0.0424205  
H163     H      0.221440000000     0.215400000000     0.618860000000     0.038594   
H164     H      0.296070000000     0.288910000000     0.675040000000     0.0408596  
H165     H      0.291850000000     0.289850000000     0.613790000000     0.0408207  
H166     H      0.305300000000     0.253580000000     0.631730000000     0.0384594  
H167     H      0.217550000000     0.222680000000     0.677600000000     0.0394647  
H168     H      0.259190000000     0.207370000000     0.638700000000     0.0419825  
H169     H      0.251080000000     0.298060000000     0.900030000000     0.0417534  
H170     H      0.207950000000     0.248900000000     0.900810000000     0.0398972  
H171     H      0.228500000000     0.209200000000     0.864790000000     0.039947   
H172     H      0.285210000000     0.293700000000     0.926280000000     0.0393655  
H173     H      0.299300000000     0.283690000000     0.869040000000     0.0386352  
H174     H      0.306340000000     0.249430000000     0.894110000000     0.0408174  
H175     H      0.218920000000     0.215100000000     0.924480000000     0.0405382  
H176     H      0.262900000000     0.201960000000     0.889550000000     0.0389777  
H177     H      0.255230000000     0.449040000000     0.623460000000     0.0419099  
H178     H      0.210340000000     0.496000000000     0.619050000000     0.0386233  
H179     H      0.223810000000     0.033360000000     0.659730000000     0.040172   
H180     H      0.291820000000     0.455500000000     0.601070000000     0.0391133  
H181     H      0.299530000000     0.463860000000     0.659440000000     0.0390956  
H182     H      0.307510000000     0.999420000000     0.636610000000     0.0429674  
H183     H      0.222680000000     0.031470000000     0.598770000000     0.0412441  
H184     H      0.259990000000     0.045260000000     0.639800000000     0.0384843  
H185     H      0.260110000000     0.050920000000     0.871060000000     0.0382403  
H186     H      0.308640000000     0.507010000000     0.874690000000     0.0416736  
H187     H      0.293720000000     0.460850000000     0.907850000000     0.0388597  
H188     H      0.224820000000     0.038520000000     0.849940000000     0.0404378  
H189     H      0.222660000000     0.034980000000     0.911080000000     0.0403929  
H190     H      0.211260000000     0.000020000000     0.889490000000     0.0378624  
H191     H      0.303290000000     0.471890000000     0.850440000000     0.0396878  
H192     H      0.258070000000     0.454150000000     0.884100000000     0.0418439  
H193     H      0.289070000000     0.377480000000     0.734460000000     0.0403295  
H194     H      0.223690000000     0.382670000000     0.732320000000     0.0392076  
H195     H      0.204220000000     0.348690000000     0.774260000000     0.0428346  
H196     H      0.309720000000     0.403840000000     0.761230000000     0.0434656  
H197     H      0.307860000000     0.350030000000     0.783160000000     0.0434653  
H198     H      0.284730000000     0.376980000000     0.807100000000     0.0384667  
H199     H      0.205840000000     0.408250000000     0.761510000000     0.043561   
H200     H      0.221620000000     0.373610000000     0.804420000000     0.0388262  
H201     H      0.240290000000     0.126160000000     0.719710000000     0.038378   
H202     H      0.303460000000     0.122630000000     0.722760000000     0.0386206  
H203     H      0.318950000000     0.158530000000     0.764590000000     0.0434591  
H204     H      0.216990000000     0.099850000000     0.744200000000     0.0432615  
H205     H      0.215110000000     0.154090000000     0.764750000000     0.0433795  
H206     H      0.235580000000     0.128380000000     0.792300000000     0.0401947  
H207     H      0.320580000000     0.098550000000     0.753720000000     0.0428014  
H208     H      0.301190000000     0.133790000000     0.794520000000     0.0390058  
H209     H      0.996910000000     0.201620000000     0.605350000000     0.0416505  
H210     H      0.451250000000     0.247830000000     0.603060000000     0.038218   
H211     H      0.463930000000     0.283460000000     0.645510000000     0.0411207  
H212     H      0.033470000000     0.209730000000     0.583450000000     0.0395525  
H213     H      0.040880000000     0.215360000000     0.642090000000     0.039009   
H214     H      0.048300000000     0.252130000000     0.621050000000     0.0420789  
H215     H      0.462880000000     0.284490000000     0.584560000000     0.0406754  
H216     H      0.499920000000     0.296950000000     0.626280000000     0.0389508  
H217     H      0.500580000000     0.302870000000     0.870800000000     0.0414116  
H218     H      0.453880000000     0.258320000000     0.873900000000     0.0390609  
H219     H      0.466180000000     0.218680000000     0.834630000000     0.0415375  
H220     H      0.036710000000     0.294570000000     0.893330000000     0.0387776  
H221     H      0.043800000000     0.286250000000     0.834490000000     0.0396754  
H222     H      0.050820000000     0.250570000000     0.857380000000     0.0420885  
H223     H      0.463400000000     0.222470000000     0.895040000000     0.0407853  
H224     H      0.001800000000     0.206470000000     0.855380000000     0.0395511  
H225     H      0.459040000000     0.987770000000     0.610490000000     0.0447534  
H226     H      0.508820000000     0.444940000000     0.618020000000     0.038018   
H227     H      0.043070000000     0.457490000000     0.574700000000     0.0408766  
H228     H      0.463800000000     0.024750000000     0.631910000000     0.0411513  
H229     H      0.472700000000     0.032020000000     0.574150000000     0.0387459  
H230     H      0.008720000000     0.040520000000     0.596720000000     0.0417554  
H231     H      0.044160000000     0.460750000000     0.636500000000     0.0414442  
H232     H      0.056160000000     0.493940000000     0.592450000000     0.0378528  
H233     H      0.458600000000     0.011290000000     0.850680000000     0.0387248  
H234     H      0.008890000000     0.052850000000     0.846950000000     0.0384082  
H235     H      0.047370000000     0.033690000000     0.884770000000     0.0414854  
H236     H      0.461320000000     0.476700000000     0.825320000000     0.0407715  
H237     H      0.472300000000     0.463440000000     0.882010000000     0.0392359  
H238     H      0.506750000000     0.455790000000     0.856850000000     0.0417063  
H239     H      0.042830000000     0.039860000000     0.824070000000     0.0402109  
H240     H      0.055750000000     0.498910000000     0.861560000000     0.0389158  
H241     H      0.470250000000     0.384250000000     0.773790000000     0.0385815  
H242     H      0.533920000000     0.384910000000     0.775630000000     0.0389608  
H243     H      0.056010000000     0.347700000000     0.737040000000     0.0432179  
H244     H      0.450800000000     0.404870000000     0.741720000000     0.0429094  
H245     H      0.452120000000     0.345840000000     0.734540000000     0.04332    
H246     H      0.971820000000     0.367150000000     0.703150000000     0.0387897  
H247     H      0.054780000000     0.406460000000     0.745030000000     0.0437508  
H248     H      0.037110000000     0.368590000000     0.704740000000     0.0397709  
H249     H      0.972650000000     0.126940000000     0.767100000000     0.0394701  
H250     H      0.037040000000     0.126050000000     0.764680000000     0.0394461  
H251     H      0.054570000000     0.096860000000     0.717350000000     0.0432132  
H252     H      0.452110000000     0.154190000000     0.741270000000     0.043789   
H253     H      0.450510000000     0.098160000000     0.721550000000     0.043466   
H254     H      0.470290000000     0.124790000000     0.694440000000     0.0393746  
H255     H      0.056150000000     0.152830000000     0.737170000000     0.0428892  
H256     H      0.533290000000     0.124090000000     0.691990000000     0.0385954  
H257     H      0.374680000000     0.718850000000     0.465340000000     0.0386241  
H258     H      0.372680000000     0.781340000000     0.466410000000     0.0388557  
H259     H      0.350690000000     0.801910000000     0.516800000000     0.043321   
H260     H      0.404390000000     0.699240000000     0.989390000000     0.0434365  
H261     H      0.348510000000     0.699040000000     0.013070000000     0.0434897  
H262     H      0.378410000000     0.717310000000     0.037960000000     0.0392602  
H263     H      0.402920000000     0.802170000000     0.488830000000     0.0432983  
H264     H      0.380840000000     0.780540000000     0.038770000000     0.0387345  
H265     H      0.125250000000     0.787360000000     0.044900000000     0.0396076  
H266     H      0.123350000000     0.724640000000     0.042730000000     0.0387867  
H267     H      0.100420000000     0.704840000000     0.992610000000     0.0430306  
H268     H      0.154460000000     0.807250000000     0.520440000000     0.0434478  
H269     H      0.098000000000     0.807510000000     0.497930000000     0.04371    
H270     H      0.127530000000     0.789950000000     0.472270000000     0.0390806  
H271     H      0.153280000000     0.704390000000     0.019510000000     0.0435412  
H272     H      0.130180000000     0.726440000000     0.470230000000     0.0398008  
H273     H      0.382120000000     0.465630000000     0.457190000000     0.0391378  
H274     H      0.383390000000     0.528560000000     0.953210000000     0.0392331  
H275     H      0.354580000000     0.549870000000     0.998720000000     0.0429402  
H276     H      0.411490000000     0.946560000000     0.482090000000     0.0434478  
H277     H      0.357950000000     0.947370000000     0.507470000000     0.0435378  
H278     H      0.386670000000     0.970340000000     0.529650000000     0.0399649  
H279     H      0.411660000000     0.549410000000     0.977930000000     0.0434548  
H280     H      0.383430000000     0.033130000000     0.025830000000     0.03845    
H281     H      0.137700000000     0.527590000000     0.460700000000     0.0393662  
H282     H      0.135790000000     0.965270000000     0.452250000000     0.0395014  
H283     H      0.162030000000     0.939940000000     0.997350000000     0.0427154  
H284     H      0.107580000000     0.545360000000     0.485770000000     0.0432876  
H285     H      0.159880000000     0.541650000000     0.513400000000     0.0433092  
H286     H      0.129910000000     0.517400000000     0.032340000000     0.0386617  
H287     H      0.106160000000     0.943010000000     0.973990000000     0.0439205  
H288     H      0.132320000000     0.955590000000     0.024280000000     0.0390194  
H289     H      0.259180000000     0.803280000000     0.158360000000     0.0387459  
H290     H      0.209670000000     0.759140000000     0.156250000000     0.0424281  
H291     H      0.221440000000     0.715400000000     0.118860000000     0.0386147  
H292     H      0.296070000000     0.788910000000     0.175040000000     0.0408793  
H293     H      0.291850000000     0.789850000000     0.113790000000     0.0408274  
H294     H      0.305300000000     0.753580000000     0.131730000000     0.0384572  
H295     H      0.217550000000     0.722680000000     0.177600000000     0.0394747  
H296     H      0.259190000000     0.707360000000     0.138700000000     0.0420022  
H297     H      0.251090000000     0.798060000000     0.400030000000     0.0418382  
H298     H      0.207950000000     0.748890000000     0.400810000000     0.0399125  
H299     H      0.228500000000     0.709200000000     0.364780000000     0.0399731  
H300     H      0.285210000000     0.793700000000     0.426290000000     0.0394584  
H301     H      0.299310000000     0.783690000000     0.369040000000     0.0386127  
H302     H      0.306350000000     0.749430000000     0.394110000000     0.040791   
H303     H      0.218920000000     0.715100000000     0.424470000000     0.0405673  
H304     H      0.262890000000     0.701960000000     0.389550000000     0.0390321  
H305     H      0.255230000000     0.949040000000     0.123460000000     0.0423127  
H306     H      0.210340000000     0.996000000000     0.119050000000     0.041767   
H307     H      0.223810000000     0.533360000000     0.159740000000     0.0407851  
H308     H      0.291820000000     0.955510000000     0.101070000000     0.0393107  
H309     H      0.299530000000     0.963860000000     0.159440000000     0.0390581  
H310     H      0.307510000000     0.499420000000     0.136610000000     0.0423886  
H311     H      0.222680000000     0.531470000000     0.098770000000     0.040588   
H312     H      0.259990000000     0.545260000000     0.139800000000     0.0390971  
H313     H      0.260110000000     0.550920000000     0.371060000000     0.0385208  
H314     H      0.308640000000     0.007010000000     0.374690000000     0.0386494  
H315     H      0.293710000000     0.960850000000     0.407850000000     0.0394648  
H316     H      0.224820000000     0.538520000000     0.349940000000     0.0406888  
H317     H      0.222660000000     0.534980000000     0.411080000000     0.0403464  
H318     H      0.211260000000     0.500020000000     0.389490000000     0.0384255  
H319     H      0.303290000000     0.971890000000     0.350450000000     0.0392806  
H320     H      0.258070000000     0.954140000000     0.384100000000     0.0425519  
H321     H      0.289060000000     0.877480000000     0.234460000000     0.0404177  
H322     H      0.223690000000     0.882670000000     0.232320000000     0.0393407  
H323     H      0.204220000000     0.848690000000     0.274260000000     0.0428849  
H324     H      0.309720000000     0.903840000000     0.261230000000     0.0436844  
H325     H      0.307850000000     0.850030000000     0.283170000000     0.0435332  
H326     H      0.284730000000     0.876980000000     0.307100000000     0.0386064  
H327     H      0.205840000000     0.908250000000     0.261510000000     0.043864   
H328     H      0.221620000000     0.873620000000     0.304420000000     0.0389563  
H329     H      0.240290000000     0.626160000000     0.219700000000     0.0383897  
H330     H      0.303460000000     0.622630000000     0.222760000000     0.0387018  
H331     H      0.318950000000     0.658530000000     0.264590000000     0.0434761  
H332     H      0.216990000000     0.599850000000     0.244200000000     0.0433194  
H333     H      0.215110000000     0.654090000000     0.264750000000     0.043406   
H334     H      0.235580000000     0.628380000000     0.292300000000     0.0402203  
H335     H      0.320580000000     0.598550000000     0.253720000000     0.0429221  
H336     H      0.301190000000     0.633780000000     0.294520000000     0.0390269  
H337     H      0.996910000000     0.701620000000     0.105350000000     0.0416963  
H338     H      0.451250000000     0.747830000000     0.103060000000     0.0382748  
H339     H      0.463930000000     0.783460000000     0.145510000000     0.0411234  
H340     H      0.033470000000     0.709730000000     0.083450000000     0.0396047  
H341     H      0.040880000000     0.715360000000     0.142090000000     0.0390359  
H342     H      0.048300000000     0.752130000000     0.121050000000     0.0420967  
H343     H      0.462890000000     0.784500000000     0.084560000000     0.0407481  
H344     H      0.499920000000     0.796950000000     0.126280000000     0.0389643  
H345     H      0.500580000000     0.802870000000     0.370800000000     0.0414265  
H346     H      0.453880000000     0.758320000000     0.373900000000     0.0390846  
H347     H      0.466180000000     0.718680000000     0.334630000000     0.04153    
H348     H      0.036710000000     0.794570000000     0.393330000000     0.0387966  
H349     H      0.043800000000     0.786250000000     0.334490000000     0.0397016  
H350     H      0.050820000000     0.750570000000     0.357380000000     0.0420877  
H351     H      0.463400000000     0.722470000000     0.395040000000     0.0408156  
H352     H      0.001800000000     0.706470000000     0.355380000000     0.0395507  
H353     H      0.459040000000     0.487770000000     0.110490000000     0.0419821  
H354     H      0.508820000000     0.944940000000     0.118020000000     0.0381529  
H355     H      0.043070000000     0.957490000000     0.074700000000     0.0409612  
H356     H      0.463800000000     0.524750000000     0.131910000000     0.0407955  
H357     H      0.472700000000     0.532020000000     0.074150000000     0.0392988  
H358     H      0.008720000000     0.540520000000     0.096720000000     0.0422225  
H359     H      0.044160000000     0.960750000000     0.136500000000     0.0417075  
H360     H      0.056160000000     0.993940000000     0.092450000000     0.03864    
H361     H      0.458600000000     0.511290000000     0.350680000000     0.0417235  
H362     H      0.008890000000     0.552850000000     0.346950000000     0.0388582  
H363     H      0.047370000000     0.533690000000     0.384770000000     0.0407958  
H364     H      0.461320000000     0.976700000000     0.325320000000     0.0403828  
H365     H      0.472300000000     0.963440000000     0.382010000000     0.0398781  
H366     H      0.506750000000     0.955790000000     0.356850000000     0.0423307  
H367     H      0.042830000000     0.539860000000     0.324070000000     0.040855   
H368     H      0.055750000000     0.998920000000     0.361560000000     0.0421105  
H369     H      0.470250000000     0.884250000000     0.273790000000     0.0387132  
H370     H      0.533920000000     0.884910000000     0.275630000000     0.0391287  
H371     H      0.056010000000     0.847700000000     0.237040000000     0.0432737  
H372     H      0.450800000000     0.904870000000     0.241720000000     0.0431204  
H373     H      0.452120000000     0.845840000000     0.234540000000     0.0433685  
H374     H      0.971820000000     0.867150000000     0.203150000000     0.0388368  
H375     H      0.054780000000     0.906460000000     0.245030000000     0.0439909  
H376     H      0.037110000000     0.868590000000     0.204740000000     0.0398274  
H377     H      0.972660000000     0.626940000000     0.267100000000     0.0394708  
H378     H      0.037040000000     0.626050000000     0.264670000000     0.0394776  
H379     H      0.054570000000     0.596860000000     0.217340000000     0.043357   
H380     H      0.452110000000     0.654190000000     0.241270000000     0.0438602  
H381     H      0.450510000000     0.598160000000     0.221550000000     0.0435941  
H382     H      0.470290000000     0.624790000000     0.194440000000     0.0394545  
H383     H      0.056150000000     0.652830000000     0.237170000000     0.04292    
H384     H      0.533290000000     0.624090000000     0.191990000000     0.0386921  
H385     H      0.374680000000     0.718850000000     0.965340000000     0.0386334  
H386     H      0.372680000000     0.781340000000     0.966420000000     0.0388819  
H387     H      0.350690000000     0.801910000000     0.016800000000     0.0433296  
H388     H      0.404390000000     0.699240000000     0.489390000000     0.043433   
H389     H      0.348510000000     0.699040000000     0.513070000000     0.0434591  
H390     H      0.378410000000     0.717310000000     0.537960000000     0.0392673  
H391     H      0.402910000000     0.802170000000     0.988830000000     0.0433081  
H392     H      0.380840000000     0.780540000000     0.538770000000     0.0387456  
H393     H      0.125250000000     0.787360000000     0.544900000000     0.039618   
H394     H      0.123350000000     0.724640000000     0.542730000000     0.0387854  
H395     H      0.100420000000     0.704840000000     0.492610000000     0.0430324  
H396     H      0.154460000000     0.807250000000     0.020440000000     0.0434739  
H397     H      0.098000000000     0.807510000000     0.997930000000     0.0437111  
H398     H      0.127530000000     0.789950000000     0.972270000000     0.0390915  
H399     H      0.153280000000     0.704390000000     0.519510000000     0.0435087  
H400     H      0.130180000000     0.726440000000     0.970230000000     0.0398092  
H401     H      0.382120000000     0.465630000000     0.957190000000     0.0391529  
H402     H      0.383390000000     0.528560000000     0.453210000000     0.0391871  
H403     H      0.354580000000     0.549870000000     0.498720000000     0.0433368  
H404     H      0.411490000000     0.946560000000     0.982090000000     0.0434564  
H405     H      0.357950000000     0.947370000000     0.007470000000     0.0435581  
H406     H      0.386670000000     0.970340000000     0.029650000000     0.0399502  
H407     H      0.411660000000     0.549410000000     0.477930000000     0.0434171  
H408     H      0.383430000000     0.033130000000     0.525830000000     0.0385285  
H409     H      0.137700000000     0.527590000000     0.960700000000     0.0393736  
H410     H      0.135790000000     0.965270000000     0.952250000000     0.039558   
H411     H      0.162030000000     0.939940000000     0.497350000000     0.0431181  
H412     H      0.107580000000     0.545360000000     0.985770000000     0.0432903  
H413     H      0.159880000000     0.541650000000     0.013400000000     0.0433319  
H414     H      0.129910000000     0.517400000000     0.532350000000     0.0386564  
H415     H      0.106160000000     0.943010000000     0.473990000000     0.0438658  
H416     H      0.132320000000     0.955590000000     0.524280000000     0.0390962  
H417     H      0.259180000000     0.803280000000     0.658360000000     0.0387402  
H418     H      0.209670000000     0.759140000000     0.656250000000     0.042431   
H419     H      0.221440000000     0.715400000000     0.618860000000     0.0386017  
H420     H      0.296070000000     0.788910000000     0.675040000000     0.0408736  
H421     H      0.291850000000     0.789850000000     0.613790000000     0.040832   
H422     H      0.305300000000     0.753580000000     0.631730000000     0.0384614  
H423     H      0.217550000000     0.722680000000     0.677600000000     0.0394753  
H424     H      0.259190000000     0.707360000000     0.638700000000     0.041984   
H425     H      0.251080000000     0.798060000000     0.900030000000     0.0418146  
H426     H      0.207950000000     0.748890000000     0.900810000000     0.0398936  
H427     H      0.228500000000     0.709200000000     0.864790000000     0.0399742  
H428     H      0.285210000000     0.793700000000     0.926280000000     0.039412   
H429     H      0.299300000000     0.783690000000     0.869040000000     0.0386378  
H430     H      0.306340000000     0.749430000000     0.894110000000     0.0408055  
H431     H      0.218920000000     0.715100000000     0.924480000000     0.0405329  
H432     H      0.262900000000     0.701960000000     0.889550000000     0.0390151  
H433     H      0.255230000000     0.949040000000     0.623460000000     0.0423005  
H434     H      0.210340000000     0.996000000000     0.619050000000     0.0417661  
H435     H      0.223810000000     0.533360000000     0.659730000000     0.0407616  
H436     H      0.291820000000     0.955510000000     0.601070000000     0.0392981  
H437     H      0.299530000000     0.963860000000     0.659440000000     0.0390858  
H438     H      0.307510000000     0.499420000000     0.636610000000     0.0424142  
H439     H      0.222680000000     0.531470000000     0.598770000000     0.040585   
H440     H      0.259990000000     0.545260000000     0.639800000000     0.0390779  
H441     H      0.260110000000     0.550920000000     0.871060000000     0.038507   
H442     H      0.308640000000     0.007010000000     0.874690000000     0.0386391  
H443     H      0.293720000000     0.960850000000     0.907850000000     0.0394166  
H444     H      0.224820000000     0.538520000000     0.849940000000     0.0406816  
H445     H      0.222660000000     0.534980000000     0.911080000000     0.0403122  
H446     H      0.211260000000     0.500020000000     0.889490000000     0.0384064  
H447     H      0.303290000000     0.971890000000     0.850440000000     0.039281   
H448     H      0.258070000000     0.954140000000     0.884100000000     0.0425311  
H449     H      0.289070000000     0.877480000000     0.734460000000     0.0404132  
H450     H      0.223690000000     0.882670000000     0.732320000000     0.0393441  
H451     H      0.204220000000     0.848690000000     0.774260000000     0.0428828  
H452     H      0.309720000000     0.903840000000     0.761230000000     0.0436861  
H453     H      0.307860000000     0.850030000000     0.783160000000     0.0435138  
H454     H      0.284730000000     0.876980000000     0.807100000000     0.038594   
H455     H      0.205840000000     0.908250000000     0.761510000000     0.0438665  
H456     H      0.221620000000     0.873620000000     0.804420000000     0.0389506  
H457     H      0.240290000000     0.626160000000     0.719710000000     0.0384203  
H458     H      0.303460000000     0.622630000000     0.722760000000     0.0387012  
H459     H      0.318950000000     0.658530000000     0.764590000000     0.0434745  
H460     H      0.216990000000     0.599850000000     0.744200000000     0.0433403  
H461     H      0.215110000000     0.654090000000     0.764750000000     0.0433985  
H462     H      0.235580000000     0.628380000000     0.792300000000     0.0402121  
H463     H      0.320580000000     0.598550000000     0.753720000000     0.0429168  
H464     H      0.301190000000     0.633780000000     0.794520000000     0.0390213  
H465     H      0.996910000000     0.701620000000     0.605350000000     0.0416744  
H466     H      0.451250000000     0.747830000000     0.603060000000     0.0382119  
H467     H      0.463930000000     0.783460000000     0.645510000000     0.0411288  
H468     H      0.033470000000     0.709730000000     0.583450000000     0.0395657  
H469     H      0.040880000000     0.715360000000     0.642090000000     0.0390263  
H470     H      0.048300000000     0.752130000000     0.621050000000     0.0420799  
H471     H      0.462880000000     0.784500000000     0.584560000000     0.0406567  
H472     H      0.499920000000     0.796950000000     0.626280000000     0.0389585  
H473     H      0.500580000000     0.802870000000     0.870800000000     0.0414363  
H474     H      0.453880000000     0.758320000000     0.873900000000     0.0390778  
H475     H      0.466180000000     0.718680000000     0.834630000000     0.0415305  
H476     H      0.036710000000     0.794570000000     0.893330000000     0.0387919  
H477     H      0.043800000000     0.786250000000     0.834490000000     0.0396965  
H478     H      0.050820000000     0.750570000000     0.857380000000     0.0420837  
H479     H      0.463400000000     0.722470000000     0.895040000000     0.0408021  
H480     H      0.001800000000     0.706470000000     0.855380000000     0.0395461  
H481     H      0.459040000000     0.487770000000     0.610490000000     0.0419624  
H482     H      0.508820000000     0.944940000000     0.618020000000     0.0381275  
H483     H      0.043070000000     0.957490000000     0.574700000000     0.0409149  
H484     H      0.463800000000     0.524750000000     0.631910000000     0.0407853  
H485     H      0.472700000000     0.532020000000     0.574150000000     0.0392516  
H486     H      0.008720000000     0.540520000000     0.596720000000     0.0421952  
H487     H      0.044160000000     0.960750000000     0.636500000000     0.0416999  
H488     H      0.056160000000     0.993940000000     0.592450000000     0.0386131  
H489     H      0.458600000000     0.511290000000     0.850680000000     0.0417268  
H490     H      0.008890000000     0.552850000000     0.846950000000     0.0388561  
H491     H      0.047370000000     0.533690000000     0.884770000000     0.0407943  
H492     H      0.461320000000     0.976700000000     0.825320000000     0.0403836  
H493     H      0.472300000000     0.963440000000     0.882010000000     0.0398687  
H494     H      0.506750000000     0.955790000000     0.856850000000     0.0423139  
H495     H      0.042830000000     0.539860000000     0.824070000000     0.0408534  
H496     H      0.055750000000     0.998920000000     0.861560000000     0.0421048  
H497     H      0.470250000000     0.884250000000     0.773790000000     0.0387225  
H498     H      0.533920000000     0.884910000000     0.775630000000     0.039107   
H499     H      0.056010000000     0.847700000000     0.737040000000     0.0432706  
H500     H      0.450800000000     0.904870000000     0.741720000000     0.0431327  
H501     H      0.452120000000     0.845840000000     0.734540000000     0.0433614  
H502     H      0.971820000000     0.867150000000     0.703150000000     0.0388339  
H503     H      0.054780000000     0.906460000000     0.745030000000     0.0439922  
H504     H      0.037110000000     0.868590000000     0.704740000000     0.0398236  
H505     H      0.972650000000     0.626940000000     0.767100000000     0.0394998  
H506     H      0.037040000000     0.626050000000     0.764680000000     0.0394662  
H507     H      0.054570000000     0.596860000000     0.717350000000     0.0433573  
H508     H      0.452110000000     0.654190000000     0.741270000000     0.0438183  
H509     H      0.450510000000     0.598160000000     0.721550000000     0.0436015  
H510     H      0.470290000000     0.624790000000     0.694440000000     0.0394541  
H511     H      0.056150000000     0.652830000000     0.737170000000     0.0429096  
H512     H      0.533290000000     0.624090000000     0.691990000000     0.038686   
H513     H      0.874680000000     0.218850000000     0.465340000000     0.0386305  
H514     H      0.872680000000     0.281340000000     0.466410000000     0.0388637  
H515     H      0.850690000000     0.301910000000     0.516800000000     0.0433076  
H516     H      0.904390000000     0.199240000000     0.989390000000     0.0434399  
H517     H      0.848510000000     0.199040000000     0.013070000000     0.0434727  
H518     H      0.878410000000     0.217310000000     0.037960000000     0.0392541  
H519     H      0.902910000000     0.302170000000     0.488830000000     0.0433094  
H520     H      0.880840000000     0.280540000000     0.038770000000     0.0387401  
H521     H      0.625260000000     0.287360000000     0.044900000000     0.0396068  
H522     H      0.623350000000     0.224640000000     0.042730000000     0.0387801  
H523     H      0.600420000000     0.204840000000     0.992610000000     0.0430205  
H524     H      0.654460000000     0.307260000000     0.520440000000     0.0434087  
H525     H      0.598000000000     0.307510000000     0.497930000000     0.0437131  
H526     H      0.627530000000     0.289950000000     0.472270000000     0.039075   
H527     H      0.653280000000     0.204390000000     0.019510000000     0.0435259  
H528     H      0.630180000000     0.226440000000     0.470230000000     0.0398051  
H529     H      0.882130000000     0.965620000000     0.457190000000     0.0395646  
H530     H      0.883390000000     0.028560000000     0.953210000000     0.0388246  
H531     H      0.854580000000     0.049870000000     0.998720000000     0.0430391  
H532     H      0.911490000000     0.446560000000     0.482090000000     0.0434952  
H533     H      0.857950000000     0.447370000000     0.507470000000     0.0435544  
H534     H      0.886670000000     0.470340000000     0.529650000000     0.0395446  
H535     H      0.911660000000     0.049410000000     0.977930000000     0.0435821  
H536     H      0.883430000000     0.533130000000     0.025830000000     0.0388764  
H537     H      0.637700000000     0.027590000000     0.460700000000     0.0389905  
H538     H      0.635790000000     0.465270000000     0.452250000000     0.0389572  
H539     H      0.662030000000     0.439940000000     0.997350000000     0.0427383  
H540     H      0.607580000000     0.045360000000     0.485770000000     0.0433787  
H541     H      0.659880000000     0.041650000000     0.513400000000     0.0433911  
H542     H      0.629910000000     0.017400000000     0.032340000000     0.0380224  
H543     H      0.606160000000     0.443010000000     0.973990000000     0.0438951  
H544     H      0.632320000000     0.455590000000     0.024280000000     0.0387267  
H545     H      0.759180000000     0.303280000000     0.158360000000     0.0387135  
H546     H      0.709670000000     0.259140000000     0.156250000000     0.0424193  
H547     H      0.721440000000     0.215400000000     0.118860000000     0.0385995  
H548     H      0.796070000000     0.288910000000     0.175040000000     0.0408599  
H549     H      0.791850000000     0.289850000000     0.113790000000     0.0408277  
H550     H      0.805300000000     0.253580000000     0.131730000000     0.0384635  
H551     H      0.717550000000     0.222680000000     0.177600000000     0.0394605  
H552     H      0.759190000000     0.207370000000     0.138700000000     0.0419869  
H553     H      0.751080000000     0.298060000000     0.400030000000     0.0417687  
H554     H      0.707950000000     0.248900000000     0.400810000000     0.039913   
H555     H      0.728500000000     0.209200000000     0.364780000000     0.0399419  
H556     H      0.785210000000     0.293700000000     0.426290000000     0.0394075  
H557     H      0.799310000000     0.283690000000     0.369040000000     0.0386196  
H558     H      0.806350000000     0.249430000000     0.394110000000     0.0408097  
H559     H      0.718920000000     0.215100000000     0.424470000000     0.0405719  
H560     H      0.762900000000     0.201960000000     0.389550000000     0.0389899  
H561     H      0.755230000000     0.449040000000     0.123460000000     0.0419122  
H562     H      0.710340000000     0.496000000000     0.119050000000     0.0386272  
H563     H      0.723810000000     0.033360000000     0.159740000000     0.0401739  
H564     H      0.791820000000     0.455500000000     0.101070000000     0.0391174  
H565     H      0.799530000000     0.463860000000     0.159440000000     0.0390988  
H566     H      0.807510000000     0.999420000000     0.136610000000     0.0429738  
H567     H      0.722680000000     0.031470000000     0.098770000000     0.0412503  
H568     H      0.759990000000     0.045260000000     0.139800000000     0.038487   
H569     H      0.760110000000     0.050920000000     0.371060000000     0.0382524  
H570     H      0.808640000000     0.507010000000     0.374690000000     0.0416912  
H571     H      0.793720000000     0.460850000000     0.407850000000     0.0388916  
H572     H      0.724820000000     0.038520000000     0.349940000000     0.0404418  
H573     H      0.722660000000     0.034980000000     0.411080000000     0.0404256  
H574     H      0.711260000000     0.000020000000     0.389490000000     0.0378782  
H575     H      0.803290000000     0.471890000000     0.350450000000     0.0396901  
H576     H      0.758070000000     0.454150000000     0.384100000000     0.0418559  
H577     H      0.789070000000     0.377480000000     0.234460000000     0.0403297  
H578     H      0.723690000000     0.382670000000     0.232320000000     0.0392057  
H579     H      0.704220000000     0.348690000000     0.274260000000     0.0428289  
H580     H      0.809720000000     0.403840000000     0.261230000000     0.0434675  
H581     H      0.807860000000     0.350030000000     0.283170000000     0.0434639  
H582     H      0.784730000000     0.376980000000     0.307100000000     0.0384689  
H583     H      0.705840000000     0.408250000000     0.261510000000     0.0435597  
H584     H      0.721620000000     0.373610000000     0.304420000000     0.0388277  
H585     H      0.740290000000     0.126160000000     0.219700000000     0.0383455  
H586     H      0.803460000000     0.122630000000     0.222760000000     0.0386212  
H587     H      0.818950000000     0.158530000000     0.264590000000     0.0434606  
H588     H      0.716990000000     0.099850000000     0.244200000000     0.0432388  
H589     H      0.715100000000     0.154090000000     0.264750000000     0.0433586  
H590     H      0.735580000000     0.128380000000     0.292300000000     0.0401907  
H591     H      0.820580000000     0.098550000000     0.253720000000     0.0428035  
H592     H      0.801190000000     0.133790000000     0.294520000000     0.0390099  
H593     H      0.496910000000     0.201620000000     0.105350000000     0.0414368  
H594     H      0.951250000000     0.247830000000     0.103060000000     0.0382628  
H595     H      0.963930000000     0.283460000000     0.145510000000     0.0411213  
H596     H      0.533470000000     0.209730000000     0.083450000000     0.0395372  
H597     H      0.540880000000     0.215360000000     0.142090000000     0.0390549  
H598     H      0.548300000000     0.252130000000     0.121050000000     0.0421402  
H599     H      0.962880000000     0.284490000000     0.084560000000     0.0407385  
H600     H      0.999920000000     0.296950000000     0.126280000000     0.039016   
H601     H      0.000580000000     0.302870000000     0.370800000000     0.0413783  
H602     H      0.953880000000     0.258320000000     0.373900000000     0.0391301  
H603     H      0.966180000000     0.218680000000     0.334630000000     0.0414865  
H604     H      0.536710000000     0.294570000000     0.393330000000     0.0387507  
H605     H      0.543800000000     0.286250000000     0.334490000000     0.0396916  
H606     H      0.550820000000     0.250570000000     0.357380000000     0.0421124  
H607     H      0.963400000000     0.222470000000     0.395040000000     0.0408659  
H608     H      0.501800000000     0.206470000000     0.355380000000     0.0397825  
H609     H      0.959040000000     0.987770000000     0.110490000000     0.044806   
H610     H      0.008820000000     0.444940000000     0.118020000000     0.0379938  
H611     H      0.543070000000     0.457490000000     0.074700000000     0.0409337  
H612     H      0.963800000000     0.024750000000     0.131910000000     0.0411935  
H613     H      0.972700000000     0.032020000000     0.074150000000     0.0387666  
H614     H      0.508720000000     0.040520000000     0.096720000000     0.0419855  
H615     H      0.544160000000     0.460750000000     0.136500000000     0.0414519  
H616     H      0.556160000000     0.493940000000     0.092450000000     0.0378835  
H617     H      0.958600000000     0.011290000000     0.350680000000     0.0387578  
H618     H      0.508890000000     0.052850000000     0.346950000000     0.0384596  
H619     H      0.547370000000     0.033690000000     0.384770000000     0.0414837  
H620     H      0.961320000000     0.476700000000     0.325320000000     0.0408035  
H621     H      0.972300000000     0.463440000000     0.382010000000     0.0392118  
H622     H      0.006750000000     0.455790000000     0.356850000000     0.0415041  
H623     H      0.542830000000     0.039860000000     0.324070000000     0.0402152  
H624     H      0.555750000000     0.498910000000     0.361560000000     0.0389127  
H625     H      0.970250000000     0.384250000000     0.273790000000     0.0386232  
H626     H      0.033920000000     0.384910000000     0.275630000000     0.0389397  
H627     H      0.556020000000     0.347700000000     0.237040000000     0.0431904  
H628     H      0.950800000000     0.404870000000     0.241720000000     0.0429016  
H629     H      0.952120000000     0.345840000000     0.234540000000     0.0433144  
H630     H      0.471820000000     0.367150000000     0.203150000000     0.0387646  
H631     H      0.554780000000     0.406460000000     0.245030000000     0.0437599  
H632     H      0.537110000000     0.368590000000     0.204740000000     0.0397852  
H633     H      0.472660000000     0.126940000000     0.267100000000     0.0394357  
H634     H      0.537040000000     0.126050000000     0.264670000000     0.0394799  
H635     H      0.554570000000     0.096860000000     0.217340000000     0.0432074  
H636     H      0.952110000000     0.154190000000     0.241270000000     0.0437863  
H637     H      0.950510000000     0.098160000000     0.221550000000     0.0434603  
H638     H      0.970290000000     0.124790000000     0.194440000000     0.0394172  
H639     H      0.556150000000     0.152830000000     0.237170000000     0.0428942  
H640     H      0.033290000000     0.124090000000     0.191990000000     0.0385728  
H641     H      0.874680000000     0.218850000000     0.965340000000     0.0386385  
H642     H      0.872680000000     0.281340000000     0.966420000000     0.0388862  
H643     H      0.850690000000     0.301910000000     0.016800000000     0.0433323  
H644     H      0.904390000000     0.199240000000     0.489390000000     0.0434383  
H645     H      0.848510000000     0.199040000000     0.513070000000     0.0434448  
H646     H      0.878410000000     0.217310000000     0.537960000000     0.0392624  
H647     H      0.902920000000     0.302170000000     0.988830000000     0.0433295  
H648     H      0.880840000000     0.280540000000     0.538770000000     0.03875    
H649     H      0.625250000000     0.287360000000     0.544900000000     0.0396068  
H650     H      0.623350000000     0.224640000000     0.542730000000     0.0387672  
H651     H      0.600420000000     0.204840000000     0.492610000000     0.0430318  
H652     H      0.654460000000     0.307260000000     0.020440000000     0.0434419  
H653     H      0.598000000000     0.307510000000     0.997930000000     0.0437139  
H654     H      0.627530000000     0.289950000000     0.972270000000     0.0390869  
H655     H      0.653280000000     0.204390000000     0.519510000000     0.0434913  
H656     H      0.630180000000     0.226440000000     0.970230000000     0.0398114  
H657     H      0.882120000000     0.965620000000     0.957190000000     0.0395707  
H658     H      0.883390000000     0.028560000000     0.453210000000     0.0387792  
H659     H      0.854580000000     0.049870000000     0.498720000000     0.0434312  
H660     H      0.911490000000     0.446560000000     0.982090000000     0.0435     
H661     H      0.857950000000     0.447370000000     0.007470000000     0.0435765  
H662     H      0.886670000000     0.470340000000     0.029650000000     0.0395318  
H663     H      0.911660000000     0.049410000000     0.477930000000     0.0435454  
H664     H      0.883430000000     0.533130000000     0.525830000000     0.0389563  
H665     H      0.637700000000     0.027590000000     0.960700000000     0.0389981  
H666     H      0.635790000000     0.465270000000     0.952250000000     0.0390147  
H667     H      0.662030000000     0.439940000000     0.497350000000     0.0431376  
H668     H      0.607580000000     0.045360000000     0.985770000000     0.0433811  
H669     H      0.659880000000     0.041650000000     0.013400000000     0.0434136  
H670     H      0.629910000000     0.017400000000     0.532350000000     0.0380162  
H671     H      0.606160000000     0.443010000000     0.473990000000     0.0438403  
H672     H      0.632320000000     0.455590000000     0.524280000000     0.0388026  
H673     H      0.759180000000     0.303280000000     0.658360000000     0.038714   
H674     H      0.709670000000     0.259140000000     0.656250000000     0.0424138  
H675     H      0.721440000000     0.215400000000     0.618860000000     0.0385988  
H676     H      0.796070000000     0.288910000000     0.675040000000     0.0408641  
H677     H      0.791850000000     0.289850000000     0.613790000000     0.0408097  
H678     H      0.805300000000     0.253580000000     0.631730000000     0.0384529  
H679     H      0.717550000000     0.222680000000     0.677600000000     0.0394612  
H680     H      0.759190000000     0.207370000000     0.638700000000     0.0419951  
H681     H      0.751080000000     0.298060000000     0.900030000000     0.0417611  
H682     H      0.707950000000     0.248900000000     0.900810000000     0.039899   
H683     H      0.728500000000     0.209200000000     0.864790000000     0.0399467  
H684     H      0.785210000000     0.293700000000     0.926280000000     0.0393653  
H685     H      0.799310000000     0.283690000000     0.869040000000     0.0386172  
H686     H      0.806350000000     0.249430000000     0.894110000000     0.0407906  
H687     H      0.718920000000     0.215100000000     0.924480000000     0.0405412  
H688     H      0.762900000000     0.201960000000     0.889550000000     0.0389771  
H689     H      0.755230000000     0.449040000000     0.623460000000     0.0419169  
H690     H      0.710340000000     0.496000000000     0.619050000000     0.0386222  
H691     H      0.723810000000     0.033360000000     0.659730000000     0.0401694  
H692     H      0.791820000000     0.455500000000     0.601070000000     0.0391233  
H693     H      0.799530000000     0.463860000000     0.659440000000     0.0390611  
H694     H      0.807510000000     0.999420000000     0.636610000000     0.0429342  
H695     H      0.722680000000     0.031470000000     0.598770000000     0.0412439  
H696     H      0.759990000000     0.045260000000     0.639800000000     0.0384822  
H697     H      0.760110000000     0.050920000000     0.871060000000     0.0382397  
H698     H      0.808640000000     0.507010000000     0.874690000000     0.0416738  
H699     H      0.793710000000     0.460850000000     0.907850000000     0.038877   
H700     H      0.724820000000     0.038520000000     0.849940000000     0.040436   
H701     H      0.722660000000     0.034980000000     0.911080000000     0.0403921  
H702     H      0.711260000000     0.000020000000     0.889490000000     0.0378612  
H703     H      0.803290000000     0.471890000000     0.850440000000     0.0396861  
H704     H      0.758070000000     0.454150000000     0.884100000000     0.0418489  
H705     H      0.789070000000     0.377480000000     0.734460000000     0.0403227  
H706     H      0.723690000000     0.382670000000     0.732320000000     0.039201   
H707     H      0.704220000000     0.348690000000     0.774260000000     0.0428341  
H708     H      0.809720000000     0.403840000000     0.761230000000     0.0434546  
H709     H      0.807850000000     0.350030000000     0.783160000000     0.0434885  
H710     H      0.784730000000     0.376980000000     0.807100000000     0.0384751  
H711     H      0.705840000000     0.408250000000     0.761510000000     0.0435534  
H712     H      0.721620000000     0.373610000000     0.804420000000     0.0388274  
H713     H      0.740290000000     0.126160000000     0.719710000000     0.0383751  
H714     H      0.803460000000     0.122630000000     0.722760000000     0.0385849  
H715     H      0.818950000000     0.158530000000     0.764590000000     0.043481   
H716     H      0.716990000000     0.099850000000     0.744200000000     0.0432583  
H717     H      0.715110000000     0.154090000000     0.764750000000     0.0433833  
H718     H      0.735580000000     0.128380000000     0.792300000000     0.0401971  
H719     H      0.820580000000     0.098550000000     0.753720000000     0.042764   
H720     H      0.801190000000     0.133790000000     0.794520000000     0.0390211  
H721     H      0.496910000000     0.201620000000     0.605350000000     0.0414115  
H722     H      0.951250000000     0.247830000000     0.603060000000     0.0382425  
H723     H      0.963930000000     0.283460000000     0.645510000000     0.0411156  
H724     H      0.533470000000     0.209730000000     0.583450000000     0.0394965  
H725     H      0.540880000000     0.215360000000     0.642090000000     0.0390468  
H726     H      0.548300000000     0.252130000000     0.621050000000     0.0421246  
H727     H      0.962880000000     0.284490000000     0.584560000000     0.0406971  
H728     H      0.999920000000     0.296950000000     0.626280000000     0.0389989  
H729     H      0.000580000000     0.302870000000     0.870800000000     0.0413748  
H730     H      0.953880000000     0.258320000000     0.873900000000     0.0391316  
H731     H      0.966180000000     0.218680000000     0.834630000000     0.0414828  
H732     H      0.536710000000     0.294570000000     0.893330000000     0.0387546  
H733     H      0.543800000000     0.286250000000     0.834490000000     0.0396859  
H734     H      0.550820000000     0.250570000000     0.857380000000     0.0421054  
H735     H      0.963400000000     0.222470000000     0.895040000000     0.0408646  
H736     H      0.501800000000     0.206470000000     0.855380000000     0.0397816  
H737     H      0.959040000000     0.987770000000     0.610490000000     0.044788   
H738     H      0.008820000000     0.444940000000     0.618020000000     0.0379754  
H739     H      0.543070000000     0.457490000000     0.574700000000     0.0408899  
H740     H      0.963800000000     0.024750000000     0.631910000000     0.0411848  
H741     H      0.972700000000     0.032020000000     0.574150000000     0.0387196  
H742     H      0.508720000000     0.040520000000     0.596720000000     0.0419598  
H743     H      0.544170000000     0.460750000000     0.636500000000     0.0414291  
H744     H      0.556160000000     0.493940000000     0.592450000000     0.0378583  
H745     H      0.958600000000     0.011290000000     0.850680000000     0.0387526  
H746     H      0.508890000000     0.052850000000     0.846950000000     0.0384649  
H747     H      0.547370000000     0.033690000000     0.884770000000     0.0414555  
H748     H      0.961310000000     0.476700000000     0.825320000000     0.0407884  
H749     H      0.972300000000     0.463440000000     0.882010000000     0.0392143  
H750     H      0.006750000000     0.455790000000     0.856850000000     0.0415055  
H751     H      0.542830000000     0.039860000000     0.824070000000     0.0402209  
H752     H      0.555750000000     0.498910000000     0.861560000000     0.0388838  
H753     H      0.970250000000     0.384250000000     0.773790000000     0.0386186  
H754     H      0.033920000000     0.384910000000     0.775630000000     0.0389358  
H755     H      0.556010000000     0.347700000000     0.737040000000     0.0432144  
H756     H      0.950800000000     0.404870000000     0.741720000000     0.0429024  
H757     H      0.952120000000     0.345840000000     0.734540000000     0.0433124  
H758     H      0.471820000000     0.367150000000     0.703150000000     0.0387563  
H759     H      0.554780000000     0.406460000000     0.745030000000     0.0437462  
H760     H      0.537110000000     0.368590000000     0.704740000000     0.0397974  
H761     H      0.472650000000     0.126940000000     0.767100000000     0.0393949  
H762     H      0.537040000000     0.126050000000     0.764680000000     0.0394663  
H763     H      0.554570000000     0.096860000000     0.717350000000     0.0432101  
H764     H      0.952110000000     0.154190000000     0.741270000000     0.04382    
H765     H      0.950510000000     0.098160000000     0.721550000000     0.0434486  
H766     H      0.970290000000     0.124790000000     0.694440000000     0.0393988  
H767     H      0.556150000000     0.152830000000     0.737170000000     0.0428839  
H768     H      0.033290000000     0.124090000000     0.691990000000     0.0385653  
H769     H      0.874680000000     0.718850000000     0.465340000000     0.0386312  
H770     H      0.872680000000     0.781340000000     0.466410000000     0.0388649  
H771     H      0.850690000000     0.801910000000     0.516800000000     0.0433157  
H772     H      0.904390000000     0.699240000000     0.989390000000     0.0434514  
H773     H      0.848510000000     0.699040000000     0.013070000000     0.0434911  
H774     H      0.878410000000     0.717310000000     0.037960000000     0.0392671  
H775     H      0.902910000000     0.802170000000     0.488830000000     0.0433133  
H776     H      0.880840000000     0.780540000000     0.038770000000     0.0387411  
H777     H      0.625260000000     0.787360000000     0.044900000000     0.0396232  
H778     H      0.623350000000     0.724640000000     0.042730000000     0.0387905  
H779     H      0.600420000000     0.704840000000     0.992610000000     0.0430305  
H780     H      0.654460000000     0.807250000000     0.520440000000     0.0434468  
H781     H      0.598000000000     0.807510000000     0.497930000000     0.0437171  
H782     H      0.627530000000     0.789950000000     0.472270000000     0.0390792  
H783     H      0.653280000000     0.704390000000     0.019510000000     0.043542   
H784     H      0.630180000000     0.726440000000     0.470230000000     0.0398049  
H785     H      0.882130000000     0.465630000000     0.457190000000     0.0391547  
H786     H      0.883390000000     0.528560000000     0.953210000000     0.0392421  
H787     H      0.854580000000     0.549870000000     0.998720000000     0.0429446  
H788     H      0.911490000000     0.946560000000     0.482090000000     0.0434736  
H789     H      0.857950000000     0.947370000000     0.507470000000     0.0435409  
H790     H      0.886670000000     0.970340000000     0.529650000000     0.0399752  
H791     H      0.911660000000     0.549410000000     0.977930000000     0.0434763  
H792     H      0.883430000000     0.033130000000     0.025830000000     0.0384604  
H793     H      0.637700000000     0.527590000000     0.460700000000     0.0393544  
H794     H      0.635790000000     0.965270000000     0.452250000000     0.0395002  
H795     H      0.662030000000     0.939940000000     0.997350000000     0.0427163  
H796     H      0.607580000000     0.545360000000     0.485770000000     0.0432824  
H797     H      0.659880000000     0.541650000000     0.513400000000     0.0433125  
H798     H      0.629910000000     0.517400000000     0.032340000000     0.0386652  
H799     H      0.606160000000     0.943010000000     0.973990000000     0.0439237  
H800     H      0.632320000000     0.955590000000     0.024280000000     0.0390205  
H801     H      0.759180000000     0.803280000000     0.158360000000     0.038741   
H802     H      0.709670000000     0.759140000000     0.156250000000     0.0424298  
H803     H      0.721440000000     0.715400000000     0.118860000000     0.0386072  
H804     H      0.796070000000     0.788910000000     0.175040000000     0.0408739  
H805     H      0.791850000000     0.789850000000     0.113790000000     0.040839   
H806     H      0.805300000000     0.753580000000     0.131730000000     0.0384655  
H807     H      0.717550000000     0.722680000000     0.177600000000     0.0394712  
H808     H      0.759190000000     0.707360000000     0.138700000000     0.0419884  
H809     H      0.751080000000     0.798060000000     0.400030000000     0.04183    
H810     H      0.707950000000     0.748890000000     0.400810000000     0.0399096  
H811     H      0.728500000000     0.709200000000     0.364780000000     0.039969   
H812     H      0.785210000000     0.793700000000     0.426290000000     0.0394543  
H813     H      0.799310000000     0.783690000000     0.369040000000     0.0386223  
H814     H      0.806350000000     0.749430000000     0.394110000000     0.0407979  
H815     H      0.718920000000     0.715100000000     0.424470000000     0.0405669  
H816     H      0.762900000000     0.701960000000     0.389550000000     0.0390275  
H817     H      0.755230000000     0.949040000000     0.123460000000     0.0423028  
H818     H      0.710340000000     0.996000000000     0.119050000000     0.0417696  
H819     H      0.723810000000     0.533360000000     0.159740000000     0.0407633  
H820     H      0.791820000000     0.955510000000     0.101070000000     0.0393022  
H821     H      0.799530000000     0.963860000000     0.159440000000     0.039089   
H822     H      0.807510000000     0.499420000000     0.136610000000     0.0424209  
H823     H      0.722680000000     0.531470000000     0.098770000000     0.0405912  
H824     H      0.759990000000     0.545260000000     0.139800000000     0.0390805  
H825     H      0.760110000000     0.550920000000     0.371060000000     0.0385197  
H826     H      0.808640000000     0.007010000000     0.374690000000     0.0386521  
H827     H      0.793720000000     0.960850000000     0.407850000000     0.0394495  
H828     H      0.724820000000     0.538520000000     0.349940000000     0.040686   
H829     H      0.722660000000     0.534980000000     0.411080000000     0.040345   
H830     H      0.711260000000     0.500020000000     0.389490000000     0.0384232  
H831     H      0.803290000000     0.971890000000     0.350450000000     0.0392814  
H832     H      0.758070000000     0.954140000000     0.384100000000     0.0425442  
H833     H      0.789070000000     0.877480000000     0.234460000000     0.0404135  
H834     H      0.723690000000     0.882670000000     0.232320000000     0.0393423  
H835     H      0.704220000000     0.848690000000     0.274260000000     0.0428771  
H836     H      0.809720000000     0.903840000000     0.261230000000     0.0436882  
H837     H      0.807860000000     0.850030000000     0.283170000000     0.0435125  
H838     H      0.784730000000     0.876980000000     0.307100000000     0.0385963  
H839     H      0.705840000000     0.908250000000     0.261510000000     0.0438653  
H840     H      0.721620000000     0.873620000000     0.304420000000     0.0389522  
H841     H      0.740290000000     0.626160000000     0.219700000000     0.0383878  
H842     H      0.803460000000     0.622630000000     0.222760000000     0.0387018  
H843     H      0.818950000000     0.658530000000     0.264590000000     0.0434761  
H844     H      0.716990000000     0.599850000000     0.244200000000     0.0433178  
H845     H      0.715100000000     0.654090000000     0.264750000000     0.0433777  
H846     H      0.735580000000     0.628380000000     0.292300000000     0.0402082  
H847     H      0.820580000000     0.598550000000     0.253720000000     0.0429191  
H848     H      0.801190000000     0.633780000000     0.294520000000     0.0390255  
H849     H      0.496910000000     0.701620000000     0.105350000000     0.0414605  
H850     H      0.951250000000     0.747830000000     0.103060000000     0.0382569  
H851     H      0.963930000000     0.783460000000     0.145510000000     0.0411294  
H852     H      0.533470000000     0.709730000000     0.083450000000     0.0395507  
H853     H      0.540880000000     0.715360000000     0.142090000000     0.0390724  
H854     H      0.548300000000     0.752130000000     0.121050000000     0.0421413  
H855     H      0.962880000000     0.784500000000     0.084560000000     0.04072    
H856     H      0.999920000000     0.796950000000     0.126280000000     0.0390237  
H857     H      0.000580000000     0.802870000000     0.370800000000     0.0414031  
H858     H      0.953880000000     0.758320000000     0.373900000000     0.0391469  
H859     H      0.966180000000     0.718680000000     0.334630000000     0.0414795  
H860     H      0.536710000000     0.794570000000     0.393330000000     0.038765   
H861     H      0.543800000000     0.786250000000     0.334490000000     0.0397127  
H862     H      0.550820000000     0.750570000000     0.357380000000     0.0421077  
H863     H      0.963400000000     0.722470000000     0.395040000000     0.0408828  
H864     H      0.501800000000     0.706470000000     0.355380000000     0.0397777  
H865     H      0.959040000000     0.487770000000     0.110490000000     0.0420155  
H866     H      0.008820000000     0.944940000000     0.118020000000     0.0381035  
H867     H      0.543070000000     0.957490000000     0.074700000000     0.040972   
H868     H      0.963800000000     0.524750000000     0.131910000000     0.0408279  
H869     H      0.972700000000     0.532020000000     0.074150000000     0.0392723  
H870     H      0.508720000000     0.540520000000     0.096720000000     0.0424264  
H871     H      0.544160000000     0.960750000000     0.136500000000     0.0417076  
H872     H      0.556160000000     0.993940000000     0.092450000000     0.0386433  
H873     H      0.958600000000     0.511290000000     0.350680000000     0.0417637  
H874     H      0.508890000000     0.552850000000     0.346950000000     0.0389085  
H875     H      0.547370000000     0.533690000000     0.384770000000     0.0407914  
H876     H      0.961320000000     0.976700000000     0.325320000000     0.0404149  
H877     H      0.972300000000     0.963440000000     0.382010000000     0.0398456  
H878     H      0.006750000000     0.955790000000     0.356850000000     0.0421132  
H879     H      0.542830000000     0.539860000000     0.324070000000     0.0408587  
H880     H      0.555750000000     0.998920000000     0.361560000000     0.0421063  
H881     H      0.970250000000     0.884250000000     0.273790000000     0.0387643  
H882     H      0.033920000000     0.884910000000     0.275630000000     0.039086   
H883     H      0.556020000000     0.847700000000     0.237040000000     0.0432432  
H884     H      0.950800000000     0.904870000000     0.241720000000     0.0431251  
H885     H      0.952120000000     0.845840000000     0.234540000000     0.0433558  
H886     H      0.471820000000     0.867150000000     0.203150000000     0.0388089  
H887     H      0.554780000000     0.906460000000     0.245030000000     0.0440016  
H888     H      0.537110000000     0.868590000000     0.204740000000     0.0398379  
H889     H      0.472660000000     0.626940000000     0.267100000000     0.0394653  
H890     H      0.537040000000     0.626050000000     0.264670000000     0.0395001  
H891     H      0.554570000000     0.596860000000     0.217340000000     0.0433516  
H892     H      0.952110000000     0.654190000000     0.241270000000     0.0438157  
H893     H      0.950510000000     0.598160000000     0.221550000000     0.0435958  
H894     H      0.970290000000     0.624790000000     0.194440000000     0.0394969  
H895     H      0.556150000000     0.652830000000     0.237170000000     0.0429146  
H896     H      0.033290000000     0.624090000000     0.191990000000     0.0386633  
H897     H      0.874680000000     0.718850000000     0.965340000000     0.0386393  
H898     H      0.872680000000     0.781340000000     0.966420000000     0.0388875  
H899     H      0.850690000000     0.801910000000     0.016800000000     0.0433403  
H900     H      0.904390000000     0.699240000000     0.489390000000     0.0434502  
H901     H      0.848510000000     0.699040000000     0.513070000000     0.0434633  
H902     H      0.878410000000     0.717310000000     0.537960000000     0.0392753  
H903     H      0.902920000000     0.802170000000     0.988830000000     0.0433332  
H904     H      0.880840000000     0.780540000000     0.538770000000     0.0387511  
H905     H      0.625250000000     0.787360000000     0.544900000000     0.0396233  
H906     H      0.623350000000     0.724640000000     0.542730000000     0.0387776  
H907     H      0.600420000000     0.704840000000     0.492610000000     0.0430421  
H908     H      0.654460000000     0.807250000000     0.020440000000     0.0434798  
H909     H      0.598000000000     0.807510000000     0.997930000000     0.0437177  
H910     H      0.627530000000     0.789950000000     0.972270000000     0.0390912  
H911     H      0.653280000000     0.704390000000     0.519510000000     0.0435074  
H912     H      0.630180000000     0.726440000000     0.970230000000     0.0398113  
H913     H      0.882120000000     0.465630000000     0.957190000000     0.0391614  
H914     H      0.883390000000     0.528560000000     0.453210000000     0.0391961  
H915     H      0.854580000000     0.549870000000     0.498720000000     0.0433408  
H916     H      0.911490000000     0.946560000000     0.982090000000     0.0434781  
H917     H      0.857950000000     0.947370000000     0.007470000000     0.043563   
H918     H      0.886670000000     0.970340000000     0.029650000000     0.0399622  
H919     H      0.911660000000     0.549410000000     0.477930000000     0.0434388  
H920     H      0.883430000000     0.033130000000     0.525830000000     0.0385392  
H921     H      0.637700000000     0.527590000000     0.960700000000     0.0393618  
H922     H      0.635790000000     0.965270000000     0.952250000000     0.039557   
H923     H      0.662030000000     0.939940000000     0.497350000000     0.0431173  
H924     H      0.607580000000     0.545360000000     0.985770000000     0.0432851  
H925     H      0.659880000000     0.541650000000     0.013400000000     0.043335   
H926     H      0.629910000000     0.517400000000     0.532350000000     0.0386599  
H927     H      0.606160000000     0.943010000000     0.473990000000     0.0438687  
H928     H      0.632320000000     0.955590000000     0.524280000000     0.0390968  
H929     H      0.759180000000     0.803280000000     0.658360000000     0.0387415  
H930     H      0.709670000000     0.759140000000     0.656250000000     0.0424243  
H931     H      0.721440000000     0.715400000000     0.618860000000     0.0386065  
H932     H      0.796070000000     0.788910000000     0.675040000000     0.040878   
H933     H      0.791850000000     0.789850000000     0.613790000000     0.040821   
H934     H      0.805300000000     0.753580000000     0.631730000000     0.0384549  
H935     H      0.717550000000     0.722680000000     0.677600000000     0.0394718  
H936     H      0.759190000000     0.707360000000     0.638700000000     0.0419966  
H937     H      0.751080000000     0.798060000000     0.900030000000     0.0418223  
H938     H      0.707950000000     0.748890000000     0.900810000000     0.0398955  
H939     H      0.728500000000     0.709200000000     0.864790000000     0.0399738  
H940     H      0.785210000000     0.793700000000     0.926280000000     0.0394119  
H941     H      0.799310000000     0.783690000000     0.869040000000     0.0386199  
H942     H      0.806350000000     0.749430000000     0.894110000000     0.0407786  
H943     H      0.718920000000     0.715100000000     0.924480000000     0.0405359  
H944     H      0.762900000000     0.701960000000     0.889550000000     0.0390146  
H945     H      0.755230000000     0.949040000000     0.623460000000     0.0423076  
H946     H      0.710340000000     0.996000000000     0.619050000000     0.0417651  
H947     H      0.723810000000     0.533360000000     0.659730000000     0.0407591  
H948     H      0.791820000000     0.955510000000     0.601070000000     0.0393082  
H949     H      0.799530000000     0.963860000000     0.659440000000     0.0390513  
H950     H      0.807510000000     0.499420000000     0.636610000000     0.0423809  
H951     H      0.722680000000     0.531470000000     0.598770000000     0.0405847  
H952     H      0.759990000000     0.545260000000     0.639800000000     0.0390758  
H953     H      0.760110000000     0.550920000000     0.871060000000     0.0385065  
H954     H      0.808640000000     0.007010000000     0.874690000000     0.0386391  
H955     H      0.793710000000     0.960850000000     0.907850000000     0.0394341  
H956     H      0.724820000000     0.538520000000     0.849940000000     0.0406798  
H957     H      0.722660000000     0.534980000000     0.911080000000     0.0403113  
H958     H      0.711260000000     0.500020000000     0.889490000000     0.0384052  
H959     H      0.803290000000     0.971890000000     0.850440000000     0.0392792  
H960     H      0.758070000000     0.954140000000     0.884100000000     0.0425362  
H961     H      0.789070000000     0.877480000000     0.734460000000     0.0404065  
H962     H      0.723690000000     0.882670000000     0.732320000000     0.0393375  
H963     H      0.704220000000     0.848690000000     0.774260000000     0.0428822  
H964     H      0.809720000000     0.903840000000     0.761230000000     0.0436752  
H965     H      0.807850000000     0.850030000000     0.783160000000     0.0435369  
H966     H      0.784730000000     0.876980000000     0.807100000000     0.0386024  
H967     H      0.705840000000     0.908250000000     0.761510000000     0.0438589  
H968     H      0.721620000000     0.873620000000     0.804420000000     0.0389518  
H969     H      0.740290000000     0.626160000000     0.719710000000     0.0384173  
H970     H      0.803460000000     0.622630000000     0.722760000000     0.0386655  
H971     H      0.818950000000     0.658530000000     0.764590000000     0.0434964  
H972     H      0.716990000000     0.599850000000     0.744200000000     0.0433371  
H973     H      0.715110000000     0.654090000000     0.764750000000     0.0434024  
H974     H      0.735580000000     0.628380000000     0.792300000000     0.0402145  
H975     H      0.820580000000     0.598550000000     0.753720000000     0.0428794  
H976     H      0.801190000000     0.633780000000     0.794520000000     0.0390367  
H977     H      0.496910000000     0.701620000000     0.605350000000     0.0414351  
H978     H      0.951250000000     0.747830000000     0.603060000000     0.0382364  
H979     H      0.963930000000     0.783460000000     0.645510000000     0.0411238  
H980     H      0.533470000000     0.709730000000     0.583450000000     0.0395097  
H981     H      0.540880000000     0.715360000000     0.642090000000     0.0390642  
H982     H      0.548300000000     0.752130000000     0.621050000000     0.0421255  
H983     H      0.962880000000     0.784500000000     0.584560000000     0.0406783  
H984     H      0.999920000000     0.796950000000     0.626280000000     0.0390065  
H985     H      0.000580000000     0.802870000000     0.870800000000     0.0413995  
H986     H      0.953880000000     0.758320000000     0.873900000000     0.0391484  
H987     H      0.966180000000     0.718680000000     0.834630000000     0.0414757  
H988     H      0.536710000000     0.794570000000     0.893330000000     0.0387688  
H989     H      0.543800000000     0.786250000000     0.834490000000     0.039707   
H990     H      0.550820000000     0.750570000000     0.857380000000     0.0421006  
H991     H      0.963400000000     0.722470000000     0.895040000000     0.0408815  
H992     H      0.501800000000     0.706470000000     0.855380000000     0.0397769  
H993     H      0.959040000000     0.487770000000     0.610490000000     0.0419972  
H994     H      0.008820000000     0.944940000000     0.618020000000     0.038085   
H995     H      0.543070000000     0.957490000000     0.574700000000     0.0409282  
H996     H      0.963800000000     0.524750000000     0.631910000000     0.0408189  
H997     H      0.972700000000     0.532020000000     0.574150000000     0.0392251  
H998     H      0.508720000000     0.540520000000     0.596720000000     0.0424005  
H999     H      0.544170000000     0.960750000000     0.636500000000     0.0416848  
H1000    H      0.556160000000     0.993940000000     0.592450000000     0.0386186  
H1001    H      0.958600000000     0.511290000000     0.850680000000     0.0417545  
H1002    H      0.508890000000     0.552850000000     0.846950000000     0.0389129  
H1003    H      0.547370000000     0.533690000000     0.884770000000     0.0407657  
H1004    H      0.961310000000     0.976700000000     0.825320000000     0.0404014  
H1005    H      0.972300000000     0.963440000000     0.882010000000     0.039847   
H1006    H      0.006750000000     0.955790000000     0.856850000000     0.0421136  
H1007    H      0.542830000000     0.539860000000     0.824070000000     0.0408635  
H1008    H      0.555750000000     0.998920000000     0.861560000000     0.0420713  
H1009    H      0.970250000000     0.884250000000     0.773790000000     0.0387596  
H1010    H      0.033920000000     0.884910000000     0.775630000000     0.0390821  
H1011    H      0.556010000000     0.847700000000     0.737040000000     0.0432671  
H1012    H      0.950800000000     0.904870000000     0.741720000000     0.0431257  
H1013    H      0.952120000000     0.845840000000     0.734540000000     0.0433538  
H1014    H      0.471820000000     0.867150000000     0.703150000000     0.0388007  
H1015    H      0.554780000000     0.906460000000     0.745030000000     0.0439877  
H1016    H      0.537110000000     0.868590000000     0.704740000000     0.03985    
H1017    H      0.472650000000     0.626940000000     0.767100000000     0.0394244  
H1018    H      0.537040000000     0.626050000000     0.764680000000     0.0394865  
H1019    H      0.554570000000     0.596860000000     0.717350000000     0.0433542  
H1020    H      0.952110000000     0.654190000000     0.741270000000     0.0438493  
H1021    H      0.950510000000     0.598160000000     0.721550000000     0.043584   
H1022    H      0.970290000000     0.624790000000     0.694440000000     0.0394784  
H1023    H      0.556150000000     0.652830000000     0.737170000000     0.0429044  
H1024    H      0.033290000000     0.624090000000     0.691990000000     0.0386557  
N1       N      0.346440000000     0.250380000000     0.516960000000    -0.170772   
N2       N      0.406950000000     0.250700000000     0.487700000000    -0.170741   
N3       N      0.096080000000     0.256210000000     0.492950000000    -0.169916   
N4       N      0.157210000000     0.255890000000     0.521640000000    -0.170004   
N5       N      0.352990000000     0.498760000000     0.504710000000    -0.170855   
N6       N      0.414840000000     0.497970000000     0.478320000000    -0.170656   
N7       N      0.164220000000     0.490550000000     0.506460000000    -0.171662   
N8       N      0.103690000000     0.494410000000     0.478300000000    -0.171261   
N9       N      0.258210000000     0.250830000000     0.113350000000    -0.170201   
N10      N      0.254940000000     0.258040000000     0.179420000000    -0.170123   
N11      N      0.265420000000     0.245300000000     0.364490000000    -0.170881   
N12      N      0.250010000000     0.256100000000     0.427860000000    -0.170598   
N13      N      0.263680000000     0.000620000000     0.162270000000    -0.172331   
N14      N      0.255820000000     0.992010000000     0.097250000000    -0.170104   
N15      N      0.256340000000     0.995970000000     0.412060000000    -0.170005   
N16      N      0.265740000000     0.007070000000     0.347520000000    -0.172814   
N17      N      0.255810000000     0.345890000000     0.279640000000    -0.170476   
N18      N      0.257810000000     0.409270000000     0.258440000000    -0.170165   
N19      N      0.266980000000     0.159550000000     0.267710000000    -0.170434   
N20      N      0.269020000000     0.095710000000     0.248060000000    -0.170761   
N21      N      0.504420000000     0.251340000000     0.146620000000    -0.171159   
N22      N      0.496820000000     0.245810000000     0.081210000000    -0.171219   
N23      N      0.506890000000     0.250460000000     0.331850000000    -0.170867   
N24      N      0.499000000000     0.259810000000     0.396760000000    -0.171145   
N25      N      0.510250000000     0.996980000000     0.071470000000    -0.169607   
N26      N      0.502110000000     0.990680000000     0.137270000000    -0.168183   
N27      N      0.511480000000     0.996620000000     0.385880000000    -0.168954   
N28      N      0.500510000000     0.010220000000     0.322010000000    -0.172488   
N29      N      0.004260000000     0.343280000000     0.233660000000    -0.170836   
N30      N      0.002680000000     0.409160000000     0.244170000000    -0.170867   
N31      N      0.002420000000     0.094120000000     0.218580000000    -0.170748   
N32      N      0.004320000000     0.156710000000     0.241230000000    -0.170772   
N33      N      0.346440000000     0.250380000000     0.016960000000    -0.1708     
N34      N      0.406950000000     0.250700000000     0.987710000000    -0.170692   
N35      N      0.096080000000     0.256210000000     0.992950000000    -0.169881   
N36      N      0.157210000000     0.255890000000     0.021640000000    -0.170029   
N37      N      0.352990000000     0.498760000000     0.004710000000    -0.170931   
N38      N      0.414840000000     0.497970000000     0.978320000000    -0.17061    
N39      N      0.164220000000     0.490550000000     0.006460000000    -0.171734   
N40      N      0.103690000000     0.494410000000     0.978300000000    -0.17121    
N41      N      0.258200000000     0.250830000000     0.613350000000    -0.170202   
N42      N      0.254940000000     0.258040000000     0.679420000000    -0.170123   
N43      N      0.265420000000     0.245300000000     0.864480000000    -0.170909   
N44      N      0.250010000000     0.256100000000     0.927860000000    -0.170633   
N45      N      0.263680000000     0.000620000000     0.662270000000    -0.172325   
N46      N      0.255820000000     0.992010000000     0.597250000000    -0.170029   
N47      N      0.256340000000     0.995970000000     0.912060000000    -0.170029   
N48      N      0.265740000000     0.007070000000     0.847520000000    -0.172825   
N49      N      0.255810000000     0.345890000000     0.779640000000    -0.170481   
N50      N      0.257810000000     0.409270000000     0.758440000000    -0.170117   
N51      N      0.266980000000     0.159550000000     0.767710000000    -0.170438   
N52      N      0.269020000000     0.095710000000     0.748060000000    -0.170753   
N53      N      0.504420000000     0.251340000000     0.646620000000    -0.171155   
N54      N      0.496820000000     0.245810000000     0.581200000000    -0.171349   
N55      N      0.506890000000     0.250460000000     0.831860000000    -0.170783   
N56      N      0.498990000000     0.259810000000     0.896760000000    -0.171136   
N57      N      0.510250000000     0.996980000000     0.571470000000    -0.169635   
N58      N      0.502110000000     0.990680000000     0.637270000000    -0.168189   
N59      N      0.511470000000     0.996620000000     0.885890000000    -0.169058   
N60      N      0.500510000000     0.010220000000     0.822010000000    -0.172481   
N61      N      0.004260000000     0.343280000000     0.733660000000    -0.170838   
N62      N      0.002680000000     0.409160000000     0.744160000000    -0.170879   
N63      N      0.002420000000     0.094120000000     0.718580000000    -0.170753   
N64      N      0.004320000000     0.156710000000     0.741230000000    -0.170756   
N65      N      0.346440000000     0.750380000000     0.516960000000    -0.170766   
N66      N      0.406950000000     0.750700000000     0.487700000000    -0.170744   
N67      N      0.096080000000     0.756210000000     0.492950000000    -0.169921   
N68      N      0.157210000000     0.755890000000     0.521640000000    -0.169993   
N69      N      0.352990000000     0.998760000000     0.504710000000    -0.169921   
N70      N      0.414840000000     0.997970000000     0.478320000000    -0.169768   
N71      N      0.164220000000     0.990550000000     0.506460000000    -0.170765   
N72      N      0.103690000000     0.994410000000     0.478300000000    -0.170396   
N73      N      0.258210000000     0.750830000000     0.113350000000    -0.170198   
N74      N      0.254940000000     0.758040000000     0.179420000000    -0.17012    
N75      N      0.265420000000     0.745300000000     0.364490000000    -0.170873   
N76      N      0.250010000000     0.756100000000     0.427860000000    -0.170577   
N77      N      0.263680000000     0.500620000000     0.162270000000    -0.171213   
N78      N      0.255820000000     0.492010000000     0.097250000000    -0.171438   
N79      N      0.256340000000     0.495970000000     0.412060000000    -0.171252   
N80      N      0.265740000000     0.507070000000     0.347520000000    -0.171021   
N81      N      0.255810000000     0.845890000000     0.279640000000    -0.170477   
N82      N      0.257810000000     0.909270000000     0.258440000000    -0.169942   
N83      N      0.266980000000     0.659550000000     0.267710000000    -0.170436   
N84      N      0.269020000000     0.595720000000     0.248060000000    -0.170708   
N85      N      0.504420000000     0.751340000000     0.146620000000    -0.171158   
N86      N      0.496820000000     0.745810000000     0.081210000000    -0.171275   
N87      N      0.506890000000     0.750460000000     0.331850000000    -0.170873   
N88      N      0.499000000000     0.759810000000     0.396760000000    -0.171138   
N89      N      0.510250000000     0.496980000000     0.071470000000    -0.17028    
N90      N      0.502110000000     0.490680000000     0.137270000000    -0.170058   
N91      N      0.511480000000     0.496620000000     0.385880000000    -0.170583   
N92      N      0.500510000000     0.510210000000     0.322010000000    -0.17053    
N93      N      0.004260000000     0.843280000000     0.233660000000    -0.170775   
N94      N      0.002680000000     0.909160000000     0.244170000000    -0.170647   
N95      N      0.002420000000     0.594120000000     0.218580000000    -0.170779   
N96      N      0.004320000000     0.656710000000     0.241230000000    -0.170763   
N97      N      0.346440000000     0.750380000000     0.016960000000    -0.170795   
N98      N      0.406950000000     0.750700000000     0.987710000000    -0.170695   
N99      N      0.096080000000     0.756210000000     0.992950000000    -0.169885   
N100     N      0.157210000000     0.755890000000     0.021640000000    -0.170018   
N101     N      0.352990000000     0.998760000000     0.004710000000    -0.169998   
N102     N      0.414840000000     0.997970000000     0.978320000000    -0.169724   
N103     N      0.164220000000     0.990550000000     0.006460000000    -0.170838   
N104     N      0.103690000000     0.994410000000     0.978300000000    -0.170346   
N105     N      0.258200000000     0.750830000000     0.613350000000    -0.170199   
N106     N      0.254940000000     0.758040000000     0.679420000000    -0.17012    
N107     N      0.265420000000     0.745300000000     0.864480000000    -0.170901   
N108     N      0.250010000000     0.756100000000     0.927860000000    -0.170611   
N109     N      0.263680000000     0.500620000000     0.662270000000    -0.171207   
N110     N      0.255820000000     0.492010000000     0.597250000000    -0.171363   
N111     N      0.256340000000     0.495970000000     0.912060000000    -0.171275   
N112     N      0.265740000000     0.507070000000     0.847520000000    -0.171035   
N113     N      0.255810000000     0.845890000000     0.779640000000    -0.170482   
N114     N      0.257810000000     0.909270000000     0.758440000000    -0.169895   
N115     N      0.266980000000     0.659550000000     0.767710000000    -0.17044    
N116     N      0.269020000000     0.595720000000     0.748060000000    -0.170699   
N117     N      0.504420000000     0.751340000000     0.646620000000    -0.171153   
N118     N      0.496820000000     0.745810000000     0.581200000000    -0.171406   
N119     N      0.506890000000     0.750460000000     0.831860000000    -0.17079    
N120     N      0.498990000000     0.759810000000     0.896760000000    -0.171128   
N121     N      0.510250000000     0.496980000000     0.571470000000    -0.170308   
N122     N      0.502110000000     0.490680000000     0.637270000000    -0.170064   
N123     N      0.511470000000     0.496620000000     0.885890000000    -0.170683   
N124     N      0.500510000000     0.510210000000     0.822010000000    -0.170526   
N125     N      0.004260000000     0.843280000000     0.733660000000    -0.170776   
N126     N      0.002680000000     0.909160000000     0.744160000000    -0.170659   
N127     N      0.002420000000     0.594120000000     0.718580000000    -0.170784   
N128     N      0.004320000000     0.656710000000     0.741230000000    -0.170747   
N129     N      0.846440000000     0.250380000000     0.516960000000    -0.170767   
N130     N      0.906950000000     0.250700000000     0.487700000000    -0.170721   
N131     N      0.596080000000     0.256210000000     0.492950000000    -0.169917   
N132     N      0.657210000000     0.255890000000     0.521640000000    -0.170014   
N133     N      0.852990000000     0.498760000000     0.504710000000    -0.170855   
N134     N      0.914840000000     0.497970000000     0.478320000000    -0.170639   
N135     N      0.664220000000     0.490550000000     0.506460000000    -0.171661   
N136     N      0.603690000000     0.494410000000     0.478300000000    -0.171269   
N137     N      0.758200000000     0.250830000000     0.113350000000    -0.170205   
N138     N      0.754940000000     0.258040000000     0.179420000000    -0.170131   
N139     N      0.765420000000     0.245300000000     0.364490000000    -0.170842   
N140     N      0.750010000000     0.256100000000     0.427860000000    -0.170604   
N141     N      0.763680000000     0.000620000000     0.162270000000    -0.172328   
N142     N      0.755820000000     0.992010000000     0.097250000000    -0.170107   
N143     N      0.756340000000     0.995970000000     0.412060000000    -0.170009   
N144     N      0.765740000000     0.007070000000     0.347520000000    -0.172819   
N145     N      0.755810000000     0.345890000000     0.279640000000    -0.170487   
N146     N      0.757810000000     0.409270000000     0.258440000000    -0.170119   
N147     N      0.766980000000     0.159550000000     0.267710000000    -0.170445   
N148     N      0.769020000000     0.095710000000     0.248060000000    -0.170767   
N149     N      0.004420000000     0.251340000000     0.146620000000    -0.171242   
N150     N      0.996820000000     0.245810000000     0.081210000000    -0.171126   
N151     N      0.006890000000     0.250460000000     0.331850000000    -0.170971   
N152     N      0.999000000000     0.259810000000     0.396760000000    -0.170863   
N153     N      0.010250000000     0.996980000000     0.071470000000    -0.16973    
N154     N      0.002110000000     0.990680000000     0.137270000000    -0.168231   
N155     N      0.011470000000     0.996620000000     0.385880000000    -0.169077   
N156     N      0.000510000000     0.010220000000     0.322010000000    -0.172537   
N157     N      0.504260000000     0.343280000000     0.233660000000    -0.170779   
N158     N      0.502670000000     0.409160000000     0.244170000000    -0.170804   
N159     N      0.502420000000     0.094120000000     0.218580000000    -0.170691   
N160     N      0.504320000000     0.156710000000     0.241230000000    -0.170691   
N161     N      0.846440000000     0.250380000000     0.016960000000    -0.170805   
N162     N      0.906960000000     0.250700000000     0.987710000000    -0.170749   
N163     N      0.596080000000     0.256210000000     0.992950000000    -0.169879   
N164     N      0.657210000000     0.255890000000     0.021640000000    -0.170025   
N165     N      0.852990000000     0.498760000000     0.004710000000    -0.170931   
N166     N      0.914840000000     0.497970000000     0.978320000000    -0.170595   
N167     N      0.664220000000     0.490550000000     0.006460000000    -0.171733   
N168     N      0.603690000000     0.494410000000     0.978300000000    -0.171218   
N169     N      0.758210000000     0.250830000000     0.613350000000    -0.170197   
N170     N      0.754940000000     0.258040000000     0.679420000000    -0.170122   
N171     N      0.765420000000     0.245300000000     0.864480000000    -0.170914   
N172     N      0.750010000000     0.256100000000     0.927860000000    -0.170629   
N173     N      0.763680000000     0.000620000000     0.662270000000    -0.172346   
N174     N      0.755820000000     0.992010000000     0.597250000000    -0.170024   
N175     N      0.756340000000     0.995970000000     0.912060000000    -0.170026   
N176     N      0.765740000000     0.007070000000     0.847520000000    -0.172828   
N177     N      0.755810000000     0.345890000000     0.779640000000    -0.170475   
N178     N      0.757810000000     0.409270000000     0.758440000000    -0.170171   
N179     N      0.766980000000     0.159550000000     0.767710000000    -0.170382   
N180     N      0.769020000000     0.095710000000     0.748060000000    -0.170775   
N181     N      0.004420000000     0.251340000000     0.646620000000    -0.171245   
N182     N      0.996820000000     0.245810000000     0.581200000000    -0.171233   
N183     N      0.006890000000     0.250460000000     0.831860000000    -0.170889   
N184     N      0.999000000000     0.259810000000     0.896760000000    -0.170858   
N185     N      0.010250000000     0.996980000000     0.571470000000    -0.16976    
N186     N      0.002110000000     0.990680000000     0.637270000000    -0.168233   
N187     N      0.011470000000     0.996620000000     0.885890000000    -0.169158   
N188     N      0.000510000000     0.010220000000     0.822010000000    -0.172539   
N189     N      0.504260000000     0.343280000000     0.733660000000    -0.170775   
N190     N      0.502680000000     0.409160000000     0.744160000000    -0.170817   
N191     N      0.502420000000     0.094120000000     0.718580000000    -0.170684   
N192     N      0.504320000000     0.156710000000     0.741230000000    -0.170714   
N193     N      0.846440000000     0.750380000000     0.516960000000    -0.170762   
N194     N      0.906950000000     0.750700000000     0.487700000000    -0.170725   
N195     N      0.596080000000     0.756210000000     0.492950000000    -0.169922   
N196     N      0.657210000000     0.755890000000     0.521640000000    -0.170003   
N197     N      0.852990000000     0.998760000000     0.504710000000    -0.169922   
N198     N      0.914840000000     0.997970000000     0.478320000000    -0.16975    
N199     N      0.664220000000     0.990550000000     0.506460000000    -0.170763   
N200     N      0.603690000000     0.994410000000     0.478300000000    -0.170403   
N201     N      0.758200000000     0.750830000000     0.113350000000    -0.170202   
N202     N      0.754940000000     0.758040000000     0.179420000000    -0.170127   
N203     N      0.765420000000     0.745300000000     0.364490000000    -0.170834   
N204     N      0.750010000000     0.756100000000     0.427860000000    -0.170582   
N205     N      0.763680000000     0.500620000000     0.162270000000    -0.17121    
N206     N      0.755820000000     0.492010000000     0.097250000000    -0.171441   
N207     N      0.756340000000     0.495970000000     0.412060000000    -0.171256   
N208     N      0.765740000000     0.507070000000     0.347520000000    -0.171025   
N209     N      0.755810000000     0.845890000000     0.279640000000    -0.170488   
N210     N      0.757810000000     0.909270000000     0.258440000000    -0.169897   
N211     N      0.766980000000     0.659550000000     0.267710000000    -0.170447   
N212     N      0.769020000000     0.595720000000     0.248060000000    -0.170713   
N213     N      0.004420000000     0.751340000000     0.146620000000    -0.171241   
N214     N      0.996820000000     0.745810000000     0.081210000000    -0.171182   
N215     N      0.006890000000     0.750460000000     0.331850000000    -0.170978   
N216     N      0.999000000000     0.759810000000     0.396760000000    -0.170855   
N217     N      0.010250000000     0.496980000000     0.071470000000    -0.170403   
N218     N      0.002110000000     0.490680000000     0.137270000000    -0.170107   
N219     N      0.011470000000     0.496620000000     0.385880000000    -0.170705   
N220     N      0.000510000000     0.510210000000     0.322010000000    -0.17058    
N221     N      0.504260000000     0.843280000000     0.233660000000    -0.170717   
N222     N      0.502670000000     0.909160000000     0.244170000000    -0.170584   
N223     N      0.502420000000     0.594120000000     0.218580000000    -0.170721   
N224     N      0.504320000000     0.656710000000     0.241230000000    -0.170682   
N225     N      0.846440000000     0.750380000000     0.016960000000    -0.1708     
N226     N      0.906960000000     0.750700000000     0.987710000000    -0.170752   
N227     N      0.596080000000     0.756210000000     0.992950000000    -0.169884   
N228     N      0.657210000000     0.755890000000     0.021640000000    -0.170014   
N229     N      0.852990000000     0.998760000000     0.004710000000    -0.169997   
N230     N      0.914840000000     0.997970000000     0.978320000000    -0.169708   
N231     N      0.664220000000     0.990550000000     0.006460000000    -0.170836   
N232     N      0.603690000000     0.994410000000     0.978300000000    -0.170354   
N233     N      0.758210000000     0.750830000000     0.613350000000    -0.170194   
N234     N      0.754940000000     0.758040000000     0.679420000000    -0.170119   
N235     N      0.765420000000     0.745300000000     0.864480000000    -0.170906   
N236     N      0.750010000000     0.756100000000     0.927860000000    -0.170608   
N237     N      0.763680000000     0.500620000000     0.662270000000    -0.171228   
N238     N      0.755820000000     0.492010000000     0.597250000000    -0.171359   
N239     N      0.756340000000     0.495970000000     0.912060000000    -0.171271   
N240     N      0.765740000000     0.507070000000     0.847520000000    -0.171037   
N241     N      0.755810000000     0.845890000000     0.779640000000    -0.170475   
N242     N      0.757810000000     0.909270000000     0.758440000000    -0.169948   
N243     N      0.766980000000     0.659550000000     0.767710000000    -0.170384   
N244     N      0.769020000000     0.595720000000     0.748060000000    -0.170722   
N245     N      0.004420000000     0.751340000000     0.646620000000    -0.171244   
N246     N      0.996820000000     0.745810000000     0.581200000000    -0.17129    
N247     N      0.006890000000     0.750460000000     0.831860000000    -0.170895   
N248     N      0.999000000000     0.759810000000     0.896760000000    -0.17085    
N249     N      0.010250000000     0.496980000000     0.571470000000    -0.170433   
N250     N      0.002110000000     0.490680000000     0.637270000000    -0.170108   
N251     N      0.011470000000     0.496620000000     0.885890000000    -0.170784   
N252     N      0.000510000000     0.510210000000     0.822010000000    -0.170584   
N253     N      0.504260000000     0.843280000000     0.733660000000    -0.170713   
N254     N      0.502680000000     0.909160000000     0.744160000000    -0.170597   
N255     N      0.502420000000     0.594120000000     0.718580000000    -0.170715   
N256     N      0.504320000000     0.656710000000     0.741230000000    -0.170705   
Ni1      Ni     0.030730000000     0.001440000000     0.229850000000     0.986551   
Ni2      Ni     0.473420000000     0.001250000000     0.229380000000     0.996609   
Ni3      Ni     0.033700000000     0.250090000000     0.238780000000     0.997345   
Ni4      Ni     0.476360000000     0.250170000000     0.239570000000     1.00317    
Ni5      Ni     0.235350000000     0.004740000000     0.255100000000     0.997623   
Ni6      Ni     0.292640000000     0.000490000000     0.254650000000     0.995038   
Ni7      Ni     0.232160000000     0.250550000000     0.273440000000     0.998863   
Ni8      Ni     0.289360000000     0.254980000000     0.270750000000     0.994961   
Ni9      Ni     0.508830000000     0.468190000000     0.478590000000     0.995654   
Ni10     Ni     0.509870000000     0.024790000000     0.978620000000     0.99588    
Ni11     Ni     0.502350000000     0.225020000000     0.487090000000     0.999002   
Ni12     Ni     0.500590000000     0.281500000000     0.990980000000     0.994797   
Ni13     Ni     0.260250000000     0.466090000000     0.004140000000     1.00356    
Ni14     Ni     0.256780000000     0.022770000000     0.505330000000     1.00188    
Ni15     Ni     0.250600000000     0.225020000000     0.519960000000     0.996179   
Ni16     Ni     0.253300000000     0.281710000000     0.021400000000     0.996445   
Ni17     Ni     0.030730000000     0.001440000000     0.729850000000     0.986553   
Ni18     Ni     0.473420000000     0.001250000000     0.729380000000     0.996609   
Ni19     Ni     0.033700000000     0.250090000000     0.738780000000     0.997335   
Ni20     Ni     0.476360000000     0.250170000000     0.739570000000     1.00317    
Ni21     Ni     0.235350000000     0.004740000000     0.755100000000     0.99775    
Ni22     Ni     0.292650000000     0.000490000000     0.754650000000     0.994924   
Ni23     Ni     0.232160000000     0.250550000000     0.773440000000     0.998807   
Ni24     Ni     0.289360000000     0.254980000000     0.770750000000     0.994951   
Ni25     Ni     0.508830000000     0.468190000000     0.978590000000     0.995389   
Ni26     Ni     0.509870000000     0.024790000000     0.478620000000     0.996146   
Ni27     Ni     0.502350000000     0.225020000000     0.987090000000     0.998954   
Ni28     Ni     0.500590000000     0.281500000000     0.490980000000     0.995307   
Ni29     Ni     0.260250000000     0.466090000000     0.504130000000     1.00317    
Ni30     Ni     0.256780000000     0.022770000000     0.005330000000     1.00226    
Ni31     Ni     0.250600000000     0.225020000000     0.019960000000     0.996503   
Ni32     Ni     0.253300000000     0.281710000000     0.521400000000     0.995893   
Ni33     Ni     0.030730000000     0.501440000000     0.229850000000     0.991567   
Ni34     Ni     0.473420000000     0.501250000000     0.229380000000     1.00145    
Ni35     Ni     0.033700000000     0.750090000000     0.238780000000     0.997525   
Ni36     Ni     0.476360000000     0.750170000000     0.239570000000     1.00313    
Ni37     Ni     0.235350000000     0.504740000000     0.255100000000     1.00012    
Ni38     Ni     0.292640000000     0.500490000000     0.254650000000     1.00073    
Ni39     Ni     0.232160000000     0.750550000000     0.273440000000     0.998872   
Ni40     Ni     0.289360000000     0.754980000000     0.270750000000     0.994943   
Ni41     Ni     0.508830000000     0.968200000000     0.478590000000     0.999051   
Ni42     Ni     0.509870000000     0.524790000000     0.978620000000     0.997554   
Ni43     Ni     0.502350000000     0.725020000000     0.487090000000     0.999022   
Ni44     Ni     0.500590000000     0.781500000000     0.990980000000     0.994799   
Ni45     Ni     0.260250000000     0.966090000000     0.004140000000     1.00695    
Ni46     Ni     0.256780000000     0.522770000000     0.505330000000     1.00343    
Ni47     Ni     0.250600000000     0.725020000000     0.519960000000     0.996018   
Ni48     Ni     0.253300000000     0.781700000000     0.021400000000     0.996343   
Ni49     Ni     0.030730000000     0.501440000000     0.729850000000     0.991568   
Ni50     Ni     0.473420000000     0.501250000000     0.729380000000     1.00145    
Ni51     Ni     0.033700000000     0.750090000000     0.738780000000     0.997515   
Ni52     Ni     0.476360000000     0.750170000000     0.739570000000     1.00313    
Ni53     Ni     0.235350000000     0.504740000000     0.755100000000     1.00025    
Ni54     Ni     0.292650000000     0.500490000000     0.754650000000     1.00061    
Ni55     Ni     0.232160000000     0.750550000000     0.773440000000     0.998816   
Ni56     Ni     0.289360000000     0.754980000000     0.770750000000     0.994934   
Ni57     Ni     0.508830000000     0.968200000000     0.978590000000     0.998775   
Ni58     Ni     0.509870000000     0.524790000000     0.478620000000     0.997828   
Ni59     Ni     0.502350000000     0.725020000000     0.987090000000     0.998972   
Ni60     Ni     0.500590000000     0.781500000000     0.490980000000     0.995312   
Ni61     Ni     0.260250000000     0.966090000000     0.504130000000     1.00656    
Ni62     Ni     0.256780000000     0.522770000000     0.005330000000     1.00382    
Ni63     Ni     0.250600000000     0.725020000000     0.019960000000     0.996343   
Ni64     Ni     0.253300000000     0.781700000000     0.521400000000     0.99579    
Ni65     Ni     0.530730000000     0.001440000000     0.229850000000     0.98679    
Ni66     Ni     0.973420000000     0.001250000000     0.229380000000     0.996717   
Ni67     Ni     0.533700000000     0.250090000000     0.238780000000     0.997584   
Ni68     Ni     0.976360000000     0.250170000000     0.239570000000     1.00329    
Ni69     Ni     0.735350000000     0.004740000000     0.255100000000     0.997702   
Ni70     Ni     0.792650000000     0.000490000000     0.254650000000     0.995122   
Ni71     Ni     0.732150000000     0.250550000000     0.273440000000     0.998871   
Ni72     Ni     0.789360000000     0.254980000000     0.270750000000     0.995098   
Ni73     Ni     0.008830000000     0.468190000000     0.478590000000     0.995454   
Ni74     Ni     0.009870000000     0.024790000000     0.978620000000     0.995682   
Ni75     Ni     0.002350000000     0.225020000000     0.487090000000     0.998622   
Ni76     Ni     0.000590000000     0.281500000000     0.990980000000     0.994421   
Ni77     Ni     0.760250000000     0.466090000000     0.004140000000     1.00356    
Ni78     Ni     0.756780000000     0.022770000000     0.505330000000     1.00188    
Ni79     Ni     0.750600000000     0.225020000000     0.519960000000     0.995938   
Ni80     Ni     0.753300000000     0.281710000000     0.021400000000     0.996245   
Ni81     Ni     0.530730000000     0.001440000000     0.729850000000     0.986795   
Ni82     Ni     0.973420000000     0.001250000000     0.729380000000     0.996722   
Ni83     Ni     0.533700000000     0.250090000000     0.738780000000     0.99758    
Ni84     Ni     0.976360000000     0.250170000000     0.739570000000     1.00329    
Ni85     Ni     0.735350000000     0.004740000000     0.755100000000     0.997773   
Ni86     Ni     0.792650000000     0.000490000000     0.754650000000     0.994956   
Ni87     Ni     0.732160000000     0.250550000000     0.773440000000     0.998814   
Ni88     Ni     0.789360000000     0.254980000000     0.770750000000     0.994855   
Ni89     Ni     0.008830000000     0.468190000000     0.978590000000     0.995188   
Ni90     Ni     0.009870000000     0.024790000000     0.478620000000     0.995949   
Ni91     Ni     0.002350000000     0.225020000000     0.987090000000     0.998577   
Ni92     Ni     0.000590000000     0.281500000000     0.490980000000     0.994927   
Ni93     Ni     0.760250000000     0.466090000000     0.504130000000     1.00316    
Ni94     Ni     0.756780000000     0.022770000000     0.005330000000     1.00226    
Ni95     Ni     0.750600000000     0.225020000000     0.019960000000     0.996533   
Ni96     Ni     0.753300000000     0.281710000000     0.521400000000     0.996127   
Ni97     Ni     0.530730000000     0.501440000000     0.229850000000     0.991808   
Ni98     Ni     0.973420000000     0.501250000000     0.229380000000     1.00156    
Ni99     Ni     0.533700000000     0.750090000000     0.238780000000     0.997764   
Ni100    Ni     0.976360000000     0.750170000000     0.239570000000     1.00324    
Ni101    Ni     0.735350000000     0.504740000000     0.255100000000     1.0002     
Ni102    Ni     0.792650000000     0.500490000000     0.254650000000     1.00081    
Ni103    Ni     0.732150000000     0.750550000000     0.273440000000     0.998881   
Ni104    Ni     0.789360000000     0.754980000000     0.270750000000     0.99508    
Ni105    Ni     0.008830000000     0.968200000000     0.478590000000     0.998851   
Ni106    Ni     0.009870000000     0.524790000000     0.978620000000     0.997354   
Ni107    Ni     0.002350000000     0.725020000000     0.487090000000     0.998641   
Ni108    Ni     0.000590000000     0.781500000000     0.990980000000     0.994424   
Ni109    Ni     0.760250000000     0.966090000000     0.004140000000     1.00695    
Ni110    Ni     0.756780000000     0.522770000000     0.505330000000     1.00343    
Ni111    Ni     0.750600000000     0.725020000000     0.519960000000     0.995776   
Ni112    Ni     0.753300000000     0.781700000000     0.021400000000     0.996143   
Ni113    Ni     0.530730000000     0.501440000000     0.729850000000     0.991811   
Ni114    Ni     0.973420000000     0.501250000000     0.729380000000     1.00156    
Ni115    Ni     0.533700000000     0.750090000000     0.738780000000     0.99776    
Ni116    Ni     0.976360000000     0.750170000000     0.739570000000     1.00324    
Ni117    Ni     0.735350000000     0.504740000000     0.755100000000     1.00027    
Ni118    Ni     0.792650000000     0.500490000000     0.754650000000     1.00064    
Ni119    Ni     0.732160000000     0.750550000000     0.773440000000     0.998823   
Ni120    Ni     0.789360000000     0.754980000000     0.770750000000     0.994837   
Ni121    Ni     0.008830000000     0.968200000000     0.978590000000     0.998574   
Ni122    Ni     0.009870000000     0.524790000000     0.478620000000     0.99763    
Ni123    Ni     0.002350000000     0.725020000000     0.987090000000     0.998594   
Ni124    Ni     0.000590000000     0.781500000000     0.490980000000     0.994931   
Ni125    Ni     0.760250000000     0.966090000000     0.504130000000     1.00655    
Ni126    Ni     0.756780000000     0.522770000000     0.005330000000     1.00381    
Ni127    Ni     0.750600000000     0.725020000000     0.019960000000     0.996373   
Ni128    Ni     0.753300000000     0.781700000000     0.521400000000     0.996024   
O1       O      0.028150000000     0.509620000000     0.274810000000    -0.445147   
O2       O      0.029040000000     0.993060000000     0.184850000000    -0.44145    
O3       O      0.028850000000     0.046290000000     0.222130000000    -0.45097    
O4       O      0.029020000000     0.456670000000     0.237750000000    -0.452094   
O5       O      0.475630000000     0.455710000000     0.233200000000    -0.4498     
O6       O      0.475390000000     0.046840000000     0.225900000000    -0.448791   
O7       O      0.475640000000     0.498420000000     0.184140000000    -0.45169    
O8       O      0.474770000000     0.003960000000     0.274590000000    -0.452993   
O9       O      0.032550000000     0.253680000000     0.284050000000    -0.45125    
O10      O      0.031220000000     0.246650000000     0.193610000000    -0.452002   
O11      O      0.031600000000     0.295680000000     0.235630000000    -0.449009   
O12      O      0.031580000000     0.204440000000     0.241740000000    -0.448744   
O13      O      0.478080000000     0.204680000000     0.238470000000    -0.452885   
O14      O      0.478200000000     0.295620000000     0.240360000000    -0.453363   
O15      O      0.477800000000     0.252170000000     0.194120000000    -0.450191   
O16      O      0.479130000000     0.248320000000     0.285000000000    -0.450013   
O17      O      0.236910000000     0.503280000000     0.209620000000    -0.449825   
O18      O      0.237940000000     0.007370000000     0.300570000000    -0.449039   
O19      O      0.240200000000     0.049650000000     0.252760000000    -0.455734   
O20      O      0.234010000000     0.458880000000     0.257120000000    -0.448248   
O21      O      0.287480000000     0.455330000000     0.256800000000    -0.452122   
O22      O      0.293710000000     0.046540000000     0.252320000000    -0.445132   
O23      O      0.291390000000     0.502180000000     0.299920000000    -0.453376   
O24      O      0.290380000000     0.998000000000     0.209440000000    -0.448664   
O25      O      0.236450000000     0.246890000000     0.318520000000    -0.450768   
O26      O      0.231380000000     0.252990000000     0.228130000000    -0.451423   
O27      O      0.237290000000     0.205500000000     0.270270000000    -0.452442   
O28      O      0.231110000000     0.296600000000     0.276520000000    -0.444935   
O29      O      0.284540000000     0.299860000000     0.273910000000    -0.455044   
O30      O      0.290710000000     0.209170000000     0.268140000000    -0.448177   
O31      O      0.284750000000     0.258170000000     0.225320000000    -0.445656   
O32      O      0.289820000000     0.252620000000     0.316330000000    -0.44691    
O33      O      0.005840000000     0.470340000000     0.433120000000    -0.447381   
O34      O      0.512180000000     0.470150000000     0.024130000000    -0.44576    
O35      O      0.462890000000     0.471110000000     0.481050000000    -0.451961   
O36      O      0.054830000000     0.469000000000     0.975960000000    -0.45171    
O37      O      0.055850000000     0.021700000000     0.481250000000    -0.454281   
O38      O      0.463670000000     0.023830000000     0.975950000000    -0.451319   
O39      O      0.006560000000     0.022920000000     0.023940000000    -0.452144   
O40      O      0.513410000000     0.022880000000     0.433300000000    -0.451692   
O41      O      0.999970000000     0.230140000000     0.442040000000    -0.451214   
O42      O      0.504060000000     0.223590000000     0.032370000000    -0.452235   
O43      O      0.456070000000     0.225300000000     0.488460000000    -0.448528   
O44      O      0.048550000000     0.228720000000     0.986300000000    -0.448293   
O45      O      0.046720000000     0.281050000000     0.494240000000    -0.448668   
O46      O      0.454700000000     0.278250000000     0.987570000000    -0.451217   
O47      O      0.996530000000     0.276020000000     0.036040000000    -0.448452   
O48      O      0.504310000000     0.282930000000     0.445570000000    -0.448387   
O49      O      0.260440000000     0.466880000000     0.049510000000    -0.45276    
O50      O      0.260770000000     0.468920000000     0.458810000000    -0.452358   
O51      O      0.305980000000     0.470250000000     0.004450000000    -0.454194   
O52      O      0.213760000000     0.465840000000     0.504060000000    -0.449426   
O53      O      0.211230000000     0.018740000000     0.006090000000    -0.459497   
O54      O      0.303240000000     0.023160000000     0.504670000000    -0.451947   
O55      O      0.255450000000     0.021750000000     0.459830000000    -0.452826   
O56      O      0.256620000000     0.019840000000     0.050700000000    -0.45357    
O57      O      0.248680000000     0.228230000000     0.474520000000    -0.448447   
O58      O      0.251740000000     0.225690000000     0.065570000000    -0.447523   
O59      O      0.204830000000     0.228360000000     0.521330000000    -0.452773   
O60      O      0.297050000000     0.225310000000     0.018460000000    -0.44815    
O61      O      0.299090000000     0.278230000000     0.519810000000    -0.452415   
O62      O      0.206650000000     0.281270000000     0.022670000000    -0.445252   
O63      O      0.255630000000     0.278620000000     0.066770000000    -0.448399   
O64      O      0.252490000000     0.281160000000     0.475940000000    -0.450013   
O65      O      0.028150000000     0.509620000000     0.774810000000    -0.445148   
O66      O      0.029040000000     0.993060000000     0.684850000000    -0.441453   
O67      O      0.028850000000     0.046290000000     0.722130000000    -0.450972   
O68      O      0.029020000000     0.456670000000     0.737750000000    -0.452101   
O69      O      0.475630000000     0.455710000000     0.733200000000    -0.44981    
O70      O      0.475390000000     0.046840000000     0.725900000000    -0.448792   
O71      O      0.475640000000     0.498420000000     0.684140000000    -0.451693   
O72      O      0.474770000000     0.003960000000     0.774590000000    -0.452994   
O73      O      0.032550000000     0.253680000000     0.784050000000    -0.451215   
O74      O      0.031220000000     0.246650000000     0.693610000000    -0.452007   
O75      O      0.031600000000     0.295680000000     0.735630000000    -0.449008   
O76      O      0.031580000000     0.204440000000     0.741740000000    -0.448738   
O77      O      0.478080000000     0.204680000000     0.738470000000    -0.452896   
O78      O      0.478200000000     0.295620000000     0.740360000000    -0.453362   
O79      O      0.477800000000     0.252170000000     0.694120000000    -0.450195   
O80      O      0.479130000000     0.248320000000     0.785000000000    -0.449976   
O81      O      0.236910000000     0.503280000000     0.709620000000    -0.449841   
O82      O      0.237940000000     0.007370000000     0.800570000000    -0.449091   
O83      O      0.240200000000     0.049650000000     0.752760000000    -0.455646   
O84      O      0.234010000000     0.458880000000     0.757120000000    -0.448203   
O85      O      0.287490000000     0.455330000000     0.756800000000    -0.451965   
O86      O      0.293710000000     0.046540000000     0.752320000000    -0.445237   
O87      O      0.291390000000     0.502180000000     0.799930000000    -0.453349   
O88      O      0.290380000000     0.998000000000     0.709440000000    -0.448663   
O89      O      0.236450000000     0.246890000000     0.818520000000    -0.450629   
O90      O      0.231380000000     0.252990000000     0.728130000000    -0.451413   
O91      O      0.237290000000     0.205500000000     0.770270000000    -0.452437   
O92      O      0.231110000000     0.296600000000     0.776520000000    -0.444931   
O93      O      0.284540000000     0.299860000000     0.773910000000    -0.455042   
O94      O      0.290710000000     0.209170000000     0.768140000000    -0.448174   
O95      O      0.284750000000     0.258170000000     0.725320000000    -0.445652   
O96      O      0.289830000000     0.252620000000     0.816330000000    -0.446864   
O97      O      0.005840000000     0.470340000000     0.933120000000    -0.447364   
O98      O      0.512180000000     0.470150000000     0.524130000000    -0.446034   
O99      O      0.462890000000     0.471110000000     0.981050000000    -0.451972   
O100     O      0.054830000000     0.469000000000     0.475960000000    -0.451708   
O101     O      0.055850000000     0.021700000000     0.981250000000    -0.454285   
O102     O      0.463670000000     0.023830000000     0.475950000000    -0.451323   
O103     O      0.006560000000     0.022920000000     0.523940000000    -0.452419   
O104     O      0.513410000000     0.022880000000     0.933300000000    -0.451674   
O105     O      0.999970000000     0.230140000000     0.942040000000    -0.451189   
O106     O      0.504060000000     0.223590000000     0.532370000000    -0.452487   
O107     O      0.456070000000     0.225300000000     0.988460000000    -0.448572   
O108     O      0.048550000000     0.228720000000     0.486300000000    -0.448257   
O109     O      0.046720000000     0.281050000000     0.994240000000    -0.448655   
O110     O      0.454700000000     0.278250000000     0.487570000000    -0.451239   
O111     O      0.996530000000     0.276020000000     0.536030000000    -0.44882    
O112     O      0.504310000000     0.282930000000     0.945570000000    -0.448301   
O113     O      0.260440000000     0.466880000000     0.549510000000    -0.45267    
O114     O      0.260770000000     0.468920000000     0.958810000000    -0.452503   
O115     O      0.305980000000     0.470250000000     0.504450000000    -0.454212   
O116     O      0.213760000000     0.465840000000     0.004060000000    -0.449375   
O117     O      0.211230000000     0.018740000000     0.506090000000    -0.459521   
O118     O      0.303240000000     0.023160000000     0.004670000000    -0.451889   
O119     O      0.255450000000     0.021750000000     0.959830000000    -0.453066   
O120     O      0.256620000000     0.019840000000     0.550700000000    -0.453582   
O121     O      0.248680000000     0.228230000000     0.974520000000    -0.448697   
O122     O      0.251740000000     0.225690000000     0.565570000000    -0.447473   
O123     O      0.204830000000     0.228360000000     0.021330000000    -0.452752   
O124     O      0.297050000000     0.225310000000     0.518460000000    -0.448204   
O125     O      0.299080000000     0.278230000000     0.019810000000    -0.452463   
O126     O      0.206650000000     0.281270000000     0.522670000000    -0.44524    
O127     O      0.255630000000     0.278620000000     0.566770000000    -0.448321   
O128     O      0.252490000000     0.281160000000     0.975940000000    -0.450286   
O129     O      0.028150000000     0.009620000000     0.274810000000    -0.444976   
O130     O      0.029040000000     0.493060000000     0.184850000000    -0.443939   
O131     O      0.028850000000     0.546290000000     0.222130000000    -0.451449   
O132     O      0.029020000000     0.956670000000     0.237750000000    -0.449819   
O133     O      0.475630000000     0.955710000000     0.233200000000    -0.447628   
O134     O      0.475390000000     0.546850000000     0.225900000000    -0.449227   
O135     O      0.475640000000     0.998420000000     0.184140000000    -0.448842   
O136     O      0.474770000000     0.503960000000     0.274590000000    -0.452872   
O137     O      0.032550000000     0.753680000000     0.284050000000    -0.451263   
O138     O      0.031220000000     0.746650000000     0.193610000000    -0.452022   
O139     O      0.031600000000     0.795680000000     0.235630000000    -0.449115   
O140     O      0.031580000000     0.704450000000     0.241740000000    -0.448809   
O141     O      0.478080000000     0.704680000000     0.238470000000    -0.452855   
O142     O      0.478200000000     0.795620000000     0.240360000000    -0.453438   
O143     O      0.477800000000     0.752170000000     0.194120000000    -0.450189   
O144     O      0.479130000000     0.748320000000     0.285000000000    -0.45002    
O145     O      0.236910000000     0.003280000000     0.209620000000    -0.449324   
O146     O      0.237940000000     0.507370000000     0.300570000000    -0.448858   
O147     O      0.240200000000     0.549650000000     0.252760000000    -0.456134   
O148     O      0.234010000000     0.958880000000     0.257120000000    -0.44606    
O149     O      0.287480000000     0.955330000000     0.256800000000    -0.449783   
O150     O      0.293710000000     0.546540000000     0.252320000000    -0.445667   
O151     O      0.291390000000     0.002180000000     0.299920000000    -0.45341    
O152     O      0.290380000000     0.498000000000     0.209440000000    -0.453446   
O153     O      0.236450000000     0.746900000000     0.318520000000    -0.450789   
O154     O      0.231380000000     0.752990000000     0.228130000000    -0.451424   
O155     O      0.237290000000     0.705500000000     0.270270000000    -0.452457   
O156     O      0.231110000000     0.796600000000     0.276520000000    -0.444916   
O157     O      0.284540000000     0.799860000000     0.273910000000    -0.455034   
O158     O      0.290710000000     0.709170000000     0.268140000000    -0.448181   
O159     O      0.284750000000     0.758170000000     0.225320000000    -0.445655   
O160     O      0.289820000000     0.752620000000     0.316330000000    -0.446914   
O161     O      0.005840000000     0.970340000000     0.433120000000    -0.44821    
O162     O      0.512180000000     0.970150000000     0.024130000000    -0.446661   
O163     O      0.462890000000     0.971110000000     0.481050000000    -0.452857   
O164     O      0.054830000000     0.969010000000     0.975960000000    -0.452774   
O165     O      0.055850000000     0.521700000000     0.481250000000    -0.451745   
O166     O      0.463670000000     0.523830000000     0.975950000000    -0.448878   
O167     O      0.006560000000     0.522920000000     0.023940000000    -0.449654   
O168     O      0.513410000000     0.522880000000     0.433300000000    -0.449306   
O169     O      0.999970000000     0.730140000000     0.442040000000    -0.451222   
O170     O      0.504060000000     0.723590000000     0.032370000000    -0.452295   
O171     O      0.456070000000     0.725300000000     0.488460000000    -0.448528   
O172     O      0.048550000000     0.728720000000     0.986300000000    -0.448296   
O173     O      0.046720000000     0.781050000000     0.494240000000    -0.448674   
O174     O      0.454700000000     0.778250000000     0.987570000000    -0.451221   
O175     O      0.996530000000     0.776010000000     0.036040000000    -0.448621   
O176     O      0.504310000000     0.782930000000     0.445570000000    -0.448391   
O177     O      0.260440000000     0.966880000000     0.049510000000    -0.453723   
O178     O      0.260770000000     0.968920000000     0.458810000000    -0.453229   
O179     O      0.305980000000     0.970240000000     0.004450000000    -0.454962   
O180     O      0.213760000000     0.965840000000     0.504060000000    -0.450241   
O181     O      0.211230000000     0.518730000000     0.006090000000    -0.457229   
O182     O      0.303240000000     0.523160000000     0.504670000000    -0.449508   
O183     O      0.255450000000     0.521750000000     0.459830000000    -0.450382   
O184     O      0.256620000000     0.519850000000     0.050700000000    -0.450941   
O185     O      0.248680000000     0.728230000000     0.474520000000    -0.448324   
O186     O      0.251740000000     0.725690000000     0.065570000000    -0.447585   
O187     O      0.204830000000     0.728360000000     0.521330000000    -0.452744   
O188     O      0.297050000000     0.725310000000     0.018460000000    -0.448123   
O189     O      0.299090000000     0.778230000000     0.519810000000    -0.452387   
O190     O      0.206650000000     0.781270000000     0.022670000000    -0.445212   
O191     O      0.255630000000     0.778620000000     0.066770000000    -0.448264   
O192     O      0.252490000000     0.781160000000     0.475940000000    -0.450068   
O193     O      0.028150000000     0.009620000000     0.774810000000    -0.444976   
O194     O      0.029040000000     0.493060000000     0.684850000000    -0.443941   
O195     O      0.028850000000     0.546290000000     0.722130000000    -0.451451   
O196     O      0.029020000000     0.956670000000     0.737750000000    -0.449826   
O197     O      0.475630000000     0.955710000000     0.733200000000    -0.447639   
O198     O      0.475390000000     0.546850000000     0.725900000000    -0.449228   
O199     O      0.475640000000     0.998420000000     0.684140000000    -0.448846   
O200     O      0.474770000000     0.503960000000     0.774590000000    -0.452873   
O201     O      0.032550000000     0.753680000000     0.784050000000    -0.451227   
O202     O      0.031220000000     0.746650000000     0.693610000000    -0.452027   
O203     O      0.031600000000     0.795680000000     0.735630000000    -0.449114   
O204     O      0.031580000000     0.704450000000     0.741740000000    -0.448803   
O205     O      0.478080000000     0.704680000000     0.738470000000    -0.452866   
O206     O      0.478200000000     0.795620000000     0.740360000000    -0.453437   
O207     O      0.477800000000     0.752170000000     0.694120000000    -0.450193   
O208     O      0.479130000000     0.748320000000     0.785000000000    -0.449984   
O209     O      0.236910000000     0.003280000000     0.709620000000    -0.44934    
O210     O      0.237940000000     0.507370000000     0.800570000000    -0.44891    
O211     O      0.240200000000     0.549650000000     0.752760000000    -0.456046   
O212     O      0.234010000000     0.958880000000     0.757120000000    -0.446016   
O213     O      0.287490000000     0.955330000000     0.756800000000    -0.449627   
O214     O      0.293710000000     0.546540000000     0.752320000000    -0.445772   
O215     O      0.291390000000     0.002180000000     0.799930000000    -0.453384   
O216     O      0.290380000000     0.498000000000     0.709440000000    -0.453442   
O217     O      0.236450000000     0.746900000000     0.818520000000    -0.45065    
O218     O      0.231380000000     0.752990000000     0.728130000000    -0.451414   
O219     O      0.237290000000     0.705500000000     0.770270000000    -0.452453   
O220     O      0.231110000000     0.796600000000     0.776520000000    -0.444912   
O221     O      0.284540000000     0.799860000000     0.773910000000    -0.455032   
O222     O      0.290710000000     0.709170000000     0.768140000000    -0.448178   
O223     O      0.284750000000     0.758170000000     0.725320000000    -0.445651   
O224     O      0.289830000000     0.752620000000     0.816330000000    -0.446868   
O225     O      0.005840000000     0.970340000000     0.933120000000    -0.448191   
O226     O      0.512180000000     0.970150000000     0.524130000000    -0.446936   
O227     O      0.462890000000     0.971110000000     0.981050000000    -0.452865   
O228     O      0.054830000000     0.969010000000     0.475960000000    -0.452775   
O229     O      0.055850000000     0.521700000000     0.981250000000    -0.451755   
O230     O      0.463670000000     0.523830000000     0.475950000000    -0.448877   
O231     O      0.006560000000     0.522920000000     0.523940000000    -0.44993    
O232     O      0.513410000000     0.522880000000     0.933300000000    -0.449292   
O233     O      0.999970000000     0.730140000000     0.942040000000    -0.451196   
O234     O      0.504060000000     0.723590000000     0.532370000000    -0.452548   
O235     O      0.456070000000     0.725300000000     0.988460000000    -0.448573   
O236     O      0.048550000000     0.728720000000     0.486300000000    -0.44826    
O237     O      0.046720000000     0.781050000000     0.994240000000    -0.448661   
O238     O      0.454700000000     0.778250000000     0.487570000000    -0.451243   
O239     O      0.996530000000     0.776010000000     0.536030000000    -0.44899    
O240     O      0.504310000000     0.782930000000     0.945570000000    -0.448305   
O241     O      0.260440000000     0.966880000000     0.549510000000    -0.453634   
O242     O      0.260770000000     0.968920000000     0.958810000000    -0.453373   
O243     O      0.305980000000     0.970240000000     0.504450000000    -0.454981   
O244     O      0.213760000000     0.965840000000     0.004060000000    -0.450189   
O245     O      0.211230000000     0.518730000000     0.506090000000    -0.457251   
O246     O      0.303240000000     0.523160000000     0.004670000000    -0.449453   
O247     O      0.255450000000     0.521750000000     0.959830000000    -0.45063    
O248     O      0.256620000000     0.519850000000     0.550700000000    -0.450951   
O249     O      0.248680000000     0.728230000000     0.974520000000    -0.448576   
O250     O      0.251740000000     0.725690000000     0.565570000000    -0.447535   
O251     O      0.204830000000     0.728360000000     0.021330000000    -0.452724   
O252     O      0.297050000000     0.725310000000     0.518460000000    -0.448177   
O253     O      0.299080000000     0.778230000000     0.019810000000    -0.452435   
O254     O      0.206650000000     0.781270000000     0.522670000000    -0.4452     
O255     O      0.255630000000     0.778620000000     0.566770000000    -0.448186   
O256     O      0.252490000000     0.781160000000     0.975940000000    -0.450342   
O257     O      0.528150000000     0.509620000000     0.274810000000    -0.445216   
O258     O      0.529040000000     0.993060000000     0.184850000000    -0.441518   
O259     O      0.528850000000     0.046290000000     0.222130000000    -0.451039   
O260     O      0.529020000000     0.456670000000     0.237750000000    -0.452168   
O261     O      0.975630000000     0.455710000000     0.233200000000    -0.449621   
O262     O      0.975390000000     0.046840000000     0.225900000000    -0.44861    
O263     O      0.975640000000     0.498420000000     0.184140000000    -0.451506   
O264     O      0.974770000000     0.003960000000     0.274590000000    -0.452811   
O265     O      0.532550000000     0.253680000000     0.284050000000    -0.451318   
O266     O      0.531220000000     0.246650000000     0.193610000000    -0.452068   
O267     O      0.531600000000     0.295680000000     0.235630000000    -0.449075   
O268     O      0.531580000000     0.204440000000     0.241740000000    -0.448812   
O269     O      0.978080000000     0.204680000000     0.238470000000    -0.452705   
O270     O      0.978200000000     0.295620000000     0.240360000000    -0.45318    
O271     O      0.977800000000     0.252170000000     0.194120000000    -0.450011   
O272     O      0.979130000000     0.248320000000     0.285000000000    -0.449832   
O273     O      0.736910000000     0.503280000000     0.209620000000    -0.449844   
O274     O      0.737940000000     0.007370000000     0.300570000000    -0.449058   
O275     O      0.740200000000     0.049650000000     0.252760000000    -0.455645   
O276     O      0.734010000000     0.458880000000     0.257120000000    -0.448201   
O277     O      0.787490000000     0.455330000000     0.256800000000    -0.451988   
O278     O      0.793710000000     0.046540000000     0.252320000000    -0.445258   
O279     O      0.791390000000     0.502180000000     0.299920000000    -0.453409   
O280     O      0.790380000000     0.998000000000     0.209440000000    -0.448695   
O281     O      0.736450000000     0.246890000000     0.318520000000    -0.450627   
O282     O      0.731380000000     0.252990000000     0.228130000000    -0.451454   
O283     O      0.737290000000     0.205500000000     0.270270000000    -0.452462   
O284     O      0.731110000000     0.296600000000     0.276520000000    -0.444971   
O285     O      0.784540000000     0.299860000000     0.273910000000    -0.455066   
O286     O      0.790710000000     0.209170000000     0.268140000000    -0.448196   
O287     O      0.784750000000     0.258170000000     0.225320000000    -0.445676   
O288     O      0.789830000000     0.252620000000     0.316330000000    -0.446855   
O289     O      0.505840000000     0.470340000000     0.433120000000    -0.44734    
O290     O      0.012180000000     0.470150000000     0.024130000000    -0.445775   
O291     O      0.962890000000     0.471110000000     0.481050000000    -0.451798   
O292     O      0.554830000000     0.469000000000     0.975960000000    -0.451744   
O293     O      0.555850000000     0.021700000000     0.481250000000    -0.454315   
O294     O      0.963670000000     0.023830000000     0.975950000000    -0.451157   
O295     O      0.506560000000     0.022920000000     0.023940000000    -0.452104   
O296     O      0.013410000000     0.022880000000     0.433300000000    -0.451707   
O297     O      0.499970000000     0.230140000000     0.442040000000    -0.451614   
O298     O      0.004060000000     0.223590000000     0.032370000000    -0.452379   
O299     O      0.956070000000     0.225300000000     0.488460000000    -0.448364   
O300     O      0.548540000000     0.228720000000     0.986300000000    -0.448369   
O301     O      0.546720000000     0.281050000000     0.494240000000    -0.448706   
O302     O      0.954700000000     0.278250000000     0.987570000000    -0.451047   
O303     O      0.496530000000     0.276020000000     0.036040000000    -0.448587   
O304     O      0.004310000000     0.282930000000     0.445570000000    -0.448271   
O305     O      0.760440000000     0.466880000000     0.049510000000    -0.452761   
O306     O      0.760770000000     0.468920000000     0.458810000000    -0.452358   
O307     O      0.805980000000     0.470250000000     0.004450000000    -0.454193   
O308     O      0.713760000000     0.465840000000     0.504060000000    -0.449427   
O309     O      0.711230000000     0.018740000000     0.006090000000    -0.459498   
O310     O      0.803240000000     0.023160000000     0.504670000000    -0.451947   
O311     O      0.755450000000     0.021750000000     0.459830000000    -0.452827   
O312     O      0.756620000000     0.019840000000     0.050700000000    -0.45357    
O313     O      0.748680000000     0.228230000000     0.474520000000    -0.448422   
O314     O      0.751740000000     0.225690000000     0.065570000000    -0.447529   
O315     O      0.704820000000     0.228360000000     0.521330000000    -0.452705   
O316     O      0.797050000000     0.225310000000     0.018460000000    -0.448184   
O317     O      0.799080000000     0.278230000000     0.519810000000    -0.452484   
O318     O      0.706650000000     0.281270000000     0.022670000000    -0.445216   
O319     O      0.755630000000     0.278620000000     0.066770000000    -0.44838    
O320     O      0.752490000000     0.281160000000     0.475940000000    -0.45004    
O321     O      0.528150000000     0.509620000000     0.774810000000    -0.445216   
O322     O      0.529040000000     0.993060000000     0.684850000000    -0.44152    
O323     O      0.528850000000     0.046290000000     0.722130000000    -0.45104    
O324     O      0.529020000000     0.456670000000     0.737750000000    -0.45217    
O325     O      0.975630000000     0.455710000000     0.733200000000    -0.449626   
O326     O      0.975390000000     0.046840000000     0.725900000000    -0.448611   
O327     O      0.975640000000     0.498420000000     0.684140000000    -0.451508   
O328     O      0.974770000000     0.003960000000     0.774590000000    -0.452811   
O329     O      0.532550000000     0.253680000000     0.784050000000    -0.451282   
O330     O      0.531220000000     0.246650000000     0.693610000000    -0.452073   
O331     O      0.531600000000     0.295680000000     0.735630000000    -0.449074   
O332     O      0.531580000000     0.204440000000     0.741740000000    -0.448807   
O333     O      0.978080000000     0.204680000000     0.738470000000    -0.452711   
O334     O      0.978200000000     0.295620000000     0.740360000000    -0.453179   
O335     O      0.977800000000     0.252170000000     0.694120000000    -0.450014   
O336     O      0.979130000000     0.248320000000     0.785000000000    -0.449795   
O337     O      0.736910000000     0.503280000000     0.709620000000    -0.449847   
O338     O      0.737940000000     0.007370000000     0.800570000000    -0.449095   
O339     O      0.740200000000     0.049650000000     0.752760000000    -0.455654   
O340     O      0.734010000000     0.458880000000     0.757120000000    -0.44827    
O341     O      0.787480000000     0.455330000000     0.756800000000    -0.45213    
O342     O      0.793710000000     0.046540000000     0.752320000000    -0.445246   
O343     O      0.791390000000     0.502180000000     0.799930000000    -0.453354   
O344     O      0.790380000000     0.998000000000     0.709440000000    -0.44867    
O345     O      0.736450000000     0.246890000000     0.818520000000    -0.450631   
O346     O      0.731380000000     0.252990000000     0.728130000000    -0.451415   
O347     O      0.737290000000     0.205500000000     0.770270000000    -0.452381   
O348     O      0.731110000000     0.296600000000     0.776520000000    -0.445018   
O349     O      0.784540000000     0.299860000000     0.773910000000    -0.454921   
O350     O      0.790720000000     0.209170000000     0.768140000000    -0.447995   
O351     O      0.784750000000     0.258170000000     0.725320000000    -0.445642   
O352     O      0.789830000000     0.252620000000     0.816330000000    -0.446851   
O353     O      0.505840000000     0.470340000000     0.933120000000    -0.447325   
O354     O      0.012180000000     0.470150000000     0.524130000000    -0.44605    
O355     O      0.962890000000     0.471110000000     0.981050000000    -0.451809   
O356     O      0.554830000000     0.469000000000     0.475960000000    -0.451742   
O357     O      0.555850000000     0.021700000000     0.981250000000    -0.45432    
O358     O      0.963670000000     0.023830000000     0.475950000000    -0.451161   
O359     O      0.506560000000     0.022920000000     0.523940000000    -0.452379   
O360     O      0.013410000000     0.022880000000     0.933300000000    -0.451686   
O361     O      0.499970000000     0.230140000000     0.942040000000    -0.451587   
O362     O      0.004060000000     0.223590000000     0.532370000000    -0.45263    
O363     O      0.956080000000     0.225300000000     0.988460000000    -0.448462   
O364     O      0.548550000000     0.228720000000     0.486300000000    -0.448299   
O365     O      0.546720000000     0.281050000000     0.994240000000    -0.448661   
O366     O      0.954700000000     0.278250000000     0.487570000000    -0.451067   
O367     O      0.496530000000     0.276020000000     0.536030000000    -0.448957   
O368     O      0.004310000000     0.282930000000     0.945570000000    -0.448191   
O369     O      0.760440000000     0.466880000000     0.549510000000    -0.452671   
O370     O      0.760770000000     0.468920000000     0.958810000000    -0.452503   
O371     O      0.805980000000     0.470250000000     0.504450000000    -0.454211   
O372     O      0.713760000000     0.465840000000     0.004060000000    -0.449376   
O373     O      0.711230000000     0.018740000000     0.506090000000    -0.459522   
O374     O      0.803240000000     0.023160000000     0.004670000000    -0.451889   
O375     O      0.755450000000     0.021750000000     0.959830000000    -0.453066   
O376     O      0.756620000000     0.019840000000     0.550700000000    -0.453583   
O377     O      0.748680000000     0.228230000000     0.974520000000    -0.448695   
O378     O      0.751740000000     0.225690000000     0.565570000000    -0.447445   
O379     O      0.704830000000     0.228360000000     0.021330000000    -0.452749   
O380     O      0.797050000000     0.225310000000     0.518460000000    -0.44814    
O381     O      0.799090000000     0.278230000000     0.019810000000    -0.452398   
O382     O      0.706650000000     0.281270000000     0.522670000000    -0.445305   
O383     O      0.755630000000     0.278620000000     0.566770000000    -0.448345   
O384     O      0.752490000000     0.281160000000     0.975940000000    -0.450272   
O385     O      0.528150000000     0.009620000000     0.274810000000    -0.445044   
O386     O      0.529040000000     0.493060000000     0.184850000000    -0.444007   
O387     O      0.528850000000     0.546290000000     0.222130000000    -0.451518   
O388     O      0.529020000000     0.956670000000     0.237750000000    -0.449892   
O389     O      0.975630000000     0.955710000000     0.233200000000    -0.44745    
O390     O      0.975390000000     0.546850000000     0.225900000000    -0.449045   
O391     O      0.975640000000     0.998420000000     0.184140000000    -0.448659   
O392     O      0.974770000000     0.503960000000     0.274590000000    -0.452689   
O393     O      0.532550000000     0.753680000000     0.284050000000    -0.45133    
O394     O      0.531220000000     0.746650000000     0.193610000000    -0.452088   
O395     O      0.531600000000     0.795680000000     0.235630000000    -0.449181   
O396     O      0.531580000000     0.704450000000     0.241740000000    -0.448877   
O397     O      0.978080000000     0.704680000000     0.238470000000    -0.452675   
O398     O      0.978200000000     0.795620000000     0.240360000000    -0.453255   
O399     O      0.977800000000     0.752170000000     0.194120000000    -0.450009   
O400     O      0.979130000000     0.748320000000     0.285000000000    -0.449839   
O401     O      0.736910000000     0.003280000000     0.209620000000    -0.449342   
O402     O      0.737940000000     0.507370000000     0.300570000000    -0.448877   
O403     O      0.740200000000     0.549650000000     0.252760000000    -0.456045   
O404     O      0.734010000000     0.958880000000     0.257120000000    -0.446013   
O405     O      0.787490000000     0.955330000000     0.256800000000    -0.449648   
O406     O      0.793710000000     0.546540000000     0.252320000000    -0.445794   
O407     O      0.791390000000     0.002180000000     0.299920000000    -0.453444   
O408     O      0.790380000000     0.498000000000     0.209440000000    -0.453477   
O409     O      0.736450000000     0.746900000000     0.318520000000    -0.450648   
O410     O      0.731380000000     0.752990000000     0.228130000000    -0.451455   
O411     O      0.737290000000     0.705500000000     0.270270000000    -0.452477   
O412     O      0.731110000000     0.796600000000     0.276520000000    -0.444952   
O413     O      0.784540000000     0.799860000000     0.273910000000    -0.455056   
O414     O      0.790710000000     0.709170000000     0.268140000000    -0.4482     
O415     O      0.784750000000     0.758170000000     0.225320000000    -0.445675   
O416     O      0.789830000000     0.752620000000     0.316330000000    -0.446859   
O417     O      0.505840000000     0.970340000000     0.433120000000    -0.448169   
O418     O      0.012180000000     0.970150000000     0.024130000000    -0.446676   
O419     O      0.962890000000     0.971110000000     0.481050000000    -0.452694   
O420     O      0.554830000000     0.969010000000     0.975960000000    -0.452808   
O421     O      0.555850000000     0.521700000000     0.481250000000    -0.451779   
O422     O      0.963670000000     0.523830000000     0.975950000000    -0.448715   
O423     O      0.506560000000     0.522920000000     0.023940000000    -0.449614   
O424     O      0.013410000000     0.522880000000     0.433300000000    -0.449322   
O425     O      0.499970000000     0.730140000000     0.442040000000    -0.451621   
O426     O      0.004060000000     0.723590000000     0.032370000000    -0.45244    
O427     O      0.956070000000     0.725300000000     0.488460000000    -0.448365   
O428     O      0.548540000000     0.728720000000     0.986300000000    -0.448372   
O429     O      0.546720000000     0.781050000000     0.494240000000    -0.448712   
O430     O      0.954700000000     0.778250000000     0.987570000000    -0.451052   
O431     O      0.496530000000     0.776010000000     0.036040000000    -0.448755   
O432     O      0.004310000000     0.782930000000     0.445570000000    -0.448275   
O433     O      0.760440000000     0.966880000000     0.049510000000    -0.453723   
O434     O      0.760770000000     0.968920000000     0.458810000000    -0.453229   
O435     O      0.805980000000     0.970240000000     0.004450000000    -0.454961   
O436     O      0.713760000000     0.965840000000     0.504060000000    -0.450242   
O437     O      0.711230000000     0.518730000000     0.006090000000    -0.45723    
O438     O      0.803240000000     0.523160000000     0.504670000000    -0.449508   
O439     O      0.755450000000     0.521750000000     0.459830000000    -0.450383   
O440     O      0.756620000000     0.519850000000     0.050700000000    -0.450941   
O441     O      0.748680000000     0.728230000000     0.474520000000    -0.4483     
O442     O      0.751740000000     0.725690000000     0.065570000000    -0.447591   
O443     O      0.704820000000     0.728360000000     0.521330000000    -0.452676   
O444     O      0.797050000000     0.725310000000     0.018460000000    -0.448158   
O445     O      0.799080000000     0.778230000000     0.519810000000    -0.452456   
O446     O      0.706650000000     0.781270000000     0.022670000000    -0.445176   
O447     O      0.755630000000     0.778620000000     0.066770000000    -0.448244   
O448     O      0.752490000000     0.781160000000     0.475940000000    -0.450094   
O449     O      0.528150000000     0.009620000000     0.774810000000    -0.445044   
O450     O      0.529040000000     0.493060000000     0.684850000000    -0.444009   
O451     O      0.528850000000     0.546290000000     0.722130000000    -0.451519   
O452     O      0.529020000000     0.956670000000     0.737750000000    -0.449895   
O453     O      0.975630000000     0.955710000000     0.733200000000    -0.447457   
O454     O      0.975390000000     0.546850000000     0.725900000000    -0.449046   
O455     O      0.975640000000     0.998420000000     0.684140000000    -0.448661   
O456     O      0.974770000000     0.503960000000     0.774590000000    -0.452689   
O457     O      0.532550000000     0.753680000000     0.784050000000    -0.451294   
O458     O      0.531220000000     0.746650000000     0.693610000000    -0.452092   
O459     O      0.531600000000     0.795680000000     0.735630000000    -0.44918    
O460     O      0.531580000000     0.704450000000     0.741740000000    -0.448872   
O461     O      0.978080000000     0.704680000000     0.738470000000    -0.452681   
O462     O      0.978200000000     0.795620000000     0.740360000000    -0.453254   
O463     O      0.977800000000     0.752170000000     0.694120000000    -0.450012   
O464     O      0.979130000000     0.748320000000     0.785000000000    -0.449802   
O465     O      0.736910000000     0.003280000000     0.709620000000    -0.449345   
O466     O      0.737940000000     0.507370000000     0.800570000000    -0.448914   
O467     O      0.740200000000     0.549650000000     0.752760000000    -0.456054   
O468     O      0.734010000000     0.958880000000     0.757120000000    -0.446083   
O469     O      0.787480000000     0.955330000000     0.756800000000    -0.449792   
O470     O      0.793710000000     0.546540000000     0.752320000000    -0.445781   
O471     O      0.791390000000     0.002180000000     0.799930000000    -0.453388   
O472     O      0.790380000000     0.498000000000     0.709440000000    -0.45345    
O473     O      0.736450000000     0.746900000000     0.818520000000    -0.450651   
O474     O      0.731380000000     0.752990000000     0.728130000000    -0.451417   
O475     O      0.737290000000     0.705500000000     0.770270000000    -0.452397   
O476     O      0.731110000000     0.796600000000     0.776520000000    -0.444999   
O477     O      0.784540000000     0.799860000000     0.773910000000    -0.454911   
O478     O      0.790720000000     0.709170000000     0.768140000000    -0.447999   
O479     O      0.784750000000     0.758170000000     0.725320000000    -0.445641   
O480     O      0.789830000000     0.752620000000     0.816330000000    -0.446856   
O481     O      0.505840000000     0.970340000000     0.933120000000    -0.448153   
O482     O      0.012180000000     0.970150000000     0.524130000000    -0.446952   
O483     O      0.962890000000     0.971110000000     0.981050000000    -0.452703   
O484     O      0.554830000000     0.969010000000     0.475960000000    -0.452809   
O485     O      0.555850000000     0.521700000000     0.981250000000    -0.45179    
O486     O      0.963670000000     0.523830000000     0.475950000000    -0.448714   
O487     O      0.506560000000     0.522920000000     0.523940000000    -0.44989    
O488     O      0.013410000000     0.522880000000     0.933300000000    -0.449305   
O489     O      0.499970000000     0.730140000000     0.942040000000    -0.451594   
O490     O      0.004060000000     0.723590000000     0.532370000000    -0.452692   
O491     O      0.956080000000     0.725300000000     0.988460000000    -0.448462   
O492     O      0.548550000000     0.728720000000     0.486300000000    -0.448302   
O493     O      0.546720000000     0.781050000000     0.994240000000    -0.448668   
O494     O      0.954700000000     0.778250000000     0.487570000000    -0.451071   
O495     O      0.496530000000     0.776010000000     0.536030000000    -0.449126   
O496     O      0.004310000000     0.782930000000     0.945570000000    -0.448194   
O497     O      0.760440000000     0.966880000000     0.549510000000    -0.453635   
O498     O      0.760770000000     0.968920000000     0.958810000000    -0.453373   
O499     O      0.805980000000     0.970240000000     0.504450000000    -0.45498    
O500     O      0.713760000000     0.965840000000     0.004060000000    -0.45019    
O501     O      0.711230000000     0.518730000000     0.506090000000    -0.457252   
O502     O      0.803240000000     0.523160000000     0.004670000000    -0.449452   
O503     O      0.755450000000     0.521750000000     0.959830000000    -0.450629   
O504     O      0.756620000000     0.519850000000     0.550700000000    -0.450951   
O505     O      0.748680000000     0.728230000000     0.974520000000    -0.448574   
O506     O      0.751740000000     0.725690000000     0.565570000000    -0.447507   
O507     O      0.704830000000     0.728360000000     0.021330000000    -0.45272    
O508     O      0.797050000000     0.725310000000     0.518460000000    -0.448113   
O509     O      0.799090000000     0.778230000000     0.019810000000    -0.45237    
O510     O      0.706650000000     0.781270000000     0.522670000000    -0.445265   
O511     O      0.755630000000     0.778620000000     0.566770000000    -0.44821    
O512     O      0.752490000000     0.781160000000     0.975940000000    -0.450328   


