data_structure

_audit_creation_method RASPA-1.0
_audit_creation_date 2023-5-19
_audit_author_name 'Poobodin Mano'

_cell_length_a    42.1596
_cell_length_b    41.6464
_cell_length_c    41.3678
_cell_angle_alpha 90
_cell_angle_beta  90
_cell_angle_gamma 90
_cell_volume      72633.4

_symmetry_cell_setting          triclinic
_symmetry_space_group_name_Hall 'P 1'
_symmetry_space_group_name_H-M  'P 1'
_symmetry_Int_Tables_number     1

_symmetry_equiv_pos_as_xyz 'x,y,z'

loop_
_atom_site_label
_atom_site_type_symbol
_atom_site_fract_x
_atom_site_fract_y
_atom_site_fract_z
_atom_site_charge
C1       C      0.427700000000     0.006840000000     0.258920000000     0.428898   
C2       C      0.047890000000     0.495680000000     0.265160000000     0.432786   
C3       C      0.493850000000     0.062170000000     0.251080000000     0.43004    
C4       C      0.481410000000     0.442200000000     0.272320000000     0.431806   
C5       C      0.492150000000     0.316880000000     0.252200000000     0.426481   
C6       C      0.494490000000     0.194500000000     0.247880000000     0.42468    
C7       C      0.005110000000     0.259270000000     0.189120000000     0.427693   
C8       C      0.981940000000     0.252960000000     0.309840000000     0.431052   
C9       C      0.178280000000     0.494770000000     0.264110000000     0.428041   
C10      C      0.298420000000     0.492790000000     0.259050000000     0.430253   
C11      C      0.235290000000     0.992430000000     0.201150000000     0.427321   
C12      C      0.242360000000     0.995100000000     0.323850000000     0.426209   
C13      C      0.248820000000     0.068540000000     0.014740000000     0.423339   
C14      C      0.252280000000     0.446560000000     0.520620000000     0.426055   
C15      C      0.256150000000     0.011110000000     0.077940000000     0.433393   
C16      C      0.244160000000     0.005840000000     0.455870000000     0.431075   
C17      C      0.009820000000     0.250230000000     0.057090000000     0.429962   
C18      C      0.503160000000     0.240450000000     0.434480000000     0.42622    
C19      C      0.066410000000     0.242310000000     0.991960000000     0.428334   
C20      C      0.445690000000     0.247860000000     0.998590000000     0.425767   
C21      C      0.196460000000     0.250160000000     0.000270000000     0.422945   
C22      C      0.317200000000     0.259420000000     0.008710000000     0.426892   
C23      C      0.262150000000     0.193850000000     0.496370000000     0.432647   
C24      C      0.251340000000     0.314730000000     0.511220000000     0.430671   
C25      C      0.395560000000     0.264950000000     0.473540000000    -0.0122901  
C26      C      0.395820000000     0.231280000000     0.024420000000    -0.0380238  
C27      C      0.366270000000     0.282840000000     0.486250000000    -0.00963746 
C28      C      0.369780000000     0.253130000000     0.038420000000     0.0765814  
C29      C      0.352880000000     0.236490000000     0.066760000000    -0.185771   
C30      C      0.145330000000     0.233160000000     0.023710000000    -0.0128771  
C31      C      0.147310000000     0.271810000000     0.476630000000    -0.0407225  
C32      C      0.116240000000     0.217030000000     0.008590000000    -0.00805108 
C33      C      0.116820000000     0.256620000000     0.463100000000     0.0782343  
C34      C      0.097910000000     0.281250000000     0.443110000000    -0.187275   
C35      C      0.281640000000     0.396260000000     0.011650000000    -0.0124088  
C36      C      0.231820000000     0.396170000000     0.044870000000    -0.0391814  
C37      C      0.270060000000     0.366830000000     0.493470000000    -0.00722061 
C38      C      0.222100000000     0.363740000000     0.529620000000     0.0762165  
C39      C      0.203810000000     0.343220000000     0.054350000000    -0.186818   
C40      C      0.224260000000     0.119750000000     0.497270000000    -0.0143632  
C41      C      0.273370000000     0.119220000000     0.032050000000    -0.0408204  
C42      C      0.240520000000     0.143880000000     0.474300000000    -0.00849015 
C43      C      0.289640000000     0.142020000000     0.008440000000     0.0818561  
C44      C      0.315990000000     0.161410000000     0.025090000000    -0.189591   
C45      C      0.233960000000     0.469750000000     0.377220000000    -0.0126774  
C46      C      0.267430000000     0.519630000000     0.371710000000    -0.0399948  
C47      C      0.218500000000     0.983990000000     0.407550000000    -0.00818428 
C48      C      0.252440000000     0.033200000000     0.402590000000     0.0784284  
C49      C      0.275190000000     0.056850000000     0.419430000000    -0.186718   
C50      C      0.252760000000     0.469280000000     0.149130000000    -0.0138951  
C51      C      0.216960000000     0.517660000000     0.150590000000    -0.0399245  
C52      C      0.276510000000     0.988160000000     0.128150000000    -0.0088993  
C53      C      0.241080000000     0.036440000000     0.130570000000     0.0815289  
C54      C      0.225620000000     0.064280000000     0.111770000000    -0.188118   
C55      C      0.017240000000     0.263920000000     0.381850000000    -0.00939978 
C56      C      0.485520000000     0.212880000000     0.384160000000    -0.03958    
C57      C      0.991850000000     0.279410000000     0.361100000000    -0.00711252 
C58      C      0.460820000000     0.227920000000     0.360670000000     0.0756904  
C59      C      0.445560000000     0.201770000000     0.339450000000    -0.188377   
C60      C      0.991560000000     0.284560000000     0.137110000000    -0.0126743  
C61      C      0.040160000000     0.250480000000     0.141980000000    -0.0377797  
C62      C      0.483060000000     0.268540000000     0.105160000000    -0.0096747  
C63      C      0.531690000000     0.232800000000     0.110270000000     0.0769152  
C64      C      0.062610000000     0.222870000000     0.092920000000    -0.188354   
C65      C      0.128330000000     0.023750000000     0.273720000000    -0.0119013  
C66      C      0.129190000000     0.472720000000     0.240850000000    -0.0399512  
C67      C      0.097670000000     0.012680000000     0.289760000000    -0.00771198 
C68      C      0.097010000000     0.463110000000     0.255350000000     0.0779954  
C69      C      0.078260000000     0.442080000000     0.231410000000    -0.186978   
C70      C      0.350280000000     0.474980000000     0.278770000000    -0.00872963 
C71      C      0.344860000000     0.003140000000     0.225540000000    -0.0360549  
C72      C      0.378100000000     0.496640000000     0.287610000000    -0.0115263  
C73      C      0.376030000000     0.021540000000     0.231600000000     0.0753102  
C74      C      0.393170000000     0.025560000000     0.198950000000    -0.1847     
C75      C      0.016690000000     0.368010000000     0.269890000000    -0.0119851  
C76      C      0.965200000000     0.367880000000     0.238710000000    -0.0403921  
C77      C      0.502280000000     0.392020000000     0.294100000000    -0.0100185  
C78      C      0.451160000000     0.391460000000     0.263210000000     0.0804284  
C79      C      0.424340000000     0.411830000000     0.248380000000    -0.189254   
C80      C      0.011840000000     0.144770000000     0.274480000000    -0.0106576  
C81      C      0.469950000000     0.143830000000     0.230910000000    -0.0380799  
C82      C      0.022800000000     0.111380000000     0.263750000000    -0.0082793  
C83      C      0.483400000000     0.111890000000     0.218190000000     0.0777759  
C84      C      0.456660000000     0.093570000000     0.200880000000    -0.187082   
C85      C      0.427700000000     0.006840000000     0.758920000000     0.428868   
C86      C      0.047890000000     0.495680000000     0.765160000000     0.432759   
C87      C      0.493850000000     0.062170000000     0.751080000000     0.430006   
C88      C      0.481410000000     0.442200000000     0.772320000000     0.431783   
C89      C      0.492150000000     0.316880000000     0.752200000000     0.42648    
C90      C      0.494490000000     0.194500000000     0.747880000000     0.424677   
C91      C      0.005110000000     0.259270000000     0.689130000000     0.427778   
C92      C      0.981940000000     0.252960000000     0.809840000000     0.431053   
C93      C      0.178280000000     0.494770000000     0.764110000000     0.42804    
C94      C      0.298420000000     0.492790000000     0.759050000000     0.430239   
C95      C      0.235290000000     0.992430000000     0.701150000000     0.427321   
C96      C      0.242360000000     0.995100000000     0.823850000000     0.426209   
C97      C      0.248820000000     0.068540000000     0.514740000000     0.423342   
C98      C      0.252280000000     0.446560000000     0.020620000000     0.426055   
C99      C      0.256150000000     0.011110000000     0.577940000000     0.433393   
C100     C      0.244160000000     0.005840000000     0.955870000000     0.431075   
C101     C      0.009820000000     0.250230000000     0.557090000000     0.429962   
C102     C      0.503160000000     0.240450000000     0.934480000000     0.426221   
C103     C      0.066410000000     0.242310000000     0.491960000000     0.428332   
C104     C      0.445690000000     0.247860000000     0.498590000000     0.425766   
C105     C      0.196460000000     0.250160000000     0.500270000000     0.422949   
C106     C      0.317200000000     0.259420000000     0.508710000000     0.426892   
C107     C      0.262150000000     0.193850000000     0.996370000000     0.432647   
C108     C      0.251340000000     0.314730000000     0.011220000000     0.430671   
C109     C      0.395560000000     0.264950000000     0.973540000000    -0.0122901  
C110     C      0.395820000000     0.231280000000     0.524420000000    -0.0380233  
C111     C      0.366270000000     0.282840000000     0.986250000000    -0.00963655 
C112     C      0.369780000000     0.253130000000     0.538420000000     0.0765814  
C113     C      0.352880000000     0.236490000000     0.566760000000    -0.185771   
C114     C      0.145330000000     0.233160000000     0.523700000000    -0.0127665  
C115     C      0.147310000000     0.271810000000     0.976630000000    -0.0407256  
C116     C      0.116240000000     0.217030000000     0.508590000000    -0.00809472 
C117     C      0.116820000000     0.256620000000     0.963100000000     0.0782378  
C118     C      0.097910000000     0.281250000000     0.943110000000    -0.187276   
C119     C      0.281640000000     0.396260000000     0.511650000000    -0.0124072  
C120     C      0.231820000000     0.396170000000     0.544870000000    -0.0391815  
C121     C      0.270060000000     0.366830000000     0.993470000000    -0.00721829 
C122     C      0.222100000000     0.363740000000     0.029620000000     0.0762164  
C123     C      0.203810000000     0.343220000000     0.554350000000    -0.186819   
C124     C      0.224260000000     0.119750000000     0.997270000000    -0.0144256  
C125     C      0.273370000000     0.119220000000     0.532050000000    -0.0408341  
C126     C      0.240520000000     0.143880000000     0.974300000000    -0.00847202 
C127     C      0.289640000000     0.142020000000     0.508430000000     0.0818665  
C128     C      0.315990000000     0.161410000000     0.525090000000    -0.189578   
C129     C      0.233960000000     0.469750000000     0.877220000000    -0.0126773  
C130     C      0.267430000000     0.519630000000     0.871710000000    -0.0399947  
C131     C      0.218500000000     0.983990000000     0.907550000000    -0.00818436 
C132     C      0.252440000000     0.033200000000     0.902590000000     0.0784281  
C133     C      0.275190000000     0.056850000000     0.919430000000    -0.186718   
C134     C      0.252760000000     0.469280000000     0.649130000000    -0.0138949  
C135     C      0.216960000000     0.517660000000     0.650590000000    -0.0399244  
C136     C      0.276510000000     0.988160000000     0.628150000000    -0.00889935 
C137     C      0.241080000000     0.036440000000     0.630570000000     0.0815287  
C138     C      0.225620000000     0.064280000000     0.611770000000    -0.188117   
C139     C      0.017240000000     0.263920000000     0.881850000000    -0.00939594 
C140     C      0.485520000000     0.212880000000     0.884160000000    -0.0395799  
C141     C      0.991850000000     0.279410000000     0.861100000000    -0.00712521 
C142     C      0.460820000000     0.227920000000     0.860670000000     0.0756905  
C143     C      0.445560000000     0.201770000000     0.839450000000    -0.188378   
C144     C      0.991560000000     0.284560000000     0.637110000000    -0.0126862  
C145     C      0.040160000000     0.250480000000     0.641980000000    -0.0377941  
C146     C      0.483060000000     0.268540000000     0.605160000000    -0.00967172 
C147     C      0.531690000000     0.232800000000     0.610270000000     0.0769186  
C148     C      0.062610000000     0.222870000000     0.592920000000    -0.188356   
C149     C      0.128330000000     0.023750000000     0.773720000000    -0.0119042  
C150     C      0.129190000000     0.472720000000     0.740850000000    -0.0399708  
C151     C      0.097670000000     0.012680000000     0.789760000000    -0.00770951 
C152     C      0.097010000000     0.463110000000     0.755340000000     0.0780146  
C153     C      0.078260000000     0.442080000000     0.731410000000    -0.187012   
C154     C      0.350280000000     0.474980000000     0.778770000000    -0.008787   
C155     C      0.344860000000     0.003140000000     0.725540000000    -0.0359961  
C156     C      0.378100000000     0.496640000000     0.787610000000    -0.0115108  
C157     C      0.376030000000     0.021540000000     0.731600000000     0.0752912  
C158     C      0.393170000000     0.025560000000     0.698950000000    -0.184695   
C159     C      0.016690000000     0.368010000000     0.769890000000    -0.0119849  
C160     C      0.965200000000     0.367880000000     0.738710000000    -0.0403931  
C161     C      0.502280000000     0.392020000000     0.794100000000    -0.0100192  
C162     C      0.451160000000     0.391460000000     0.763210000000     0.08043    
C163     C      0.424340000000     0.411830000000     0.748380000000    -0.189256   
C164     C      0.011840000000     0.144770000000     0.774480000000    -0.0106032  
C165     C      0.469950000000     0.143830000000     0.730910000000    -0.0381185  
C166     C      0.022800000000     0.111380000000     0.763750000000    -0.0083007  
C167     C      0.483400000000     0.111890000000     0.718190000000     0.0777862  
C168     C      0.456660000000     0.093570000000     0.700880000000    -0.187089   
C169     C      0.427700000000     0.506840000000     0.258920000000     0.428935   
C170     C      0.047890000000     0.995680000000     0.265160000000     0.432718   
C171     C      0.493850000000     0.562170000000     0.251080000000     0.430053   
C172     C      0.481410000000     0.942200000000     0.272320000000     0.431912   
C173     C      0.492150000000     0.816880000000     0.252200000000     0.426512   
C174     C      0.494490000000     0.694500000000     0.247880000000     0.424648   
C175     C      0.005110000000     0.759270000000     0.189120000000     0.427691   
C176     C      0.981940000000     0.752960000000     0.309840000000     0.431052   
C177     C      0.178280000000     0.994770000000     0.264110000000     0.428005   
C178     C      0.298420000000     0.992790000000     0.259050000000     0.430219   
C179     C      0.235290000000     0.492430000000     0.201150000000     0.427608   
C180     C      0.242360000000     0.495100000000     0.323850000000     0.426245   
C181     C      0.248820000000     0.568540000000     0.014740000000     0.423279   
C182     C      0.252280000000     0.946570000000     0.520620000000     0.426144   
C183     C      0.256150000000     0.511110000000     0.077940000000     0.433396   
C184     C      0.244160000000     0.505840000000     0.455870000000     0.431076   
C185     C      0.009820000000     0.750230000000     0.057090000000     0.429963   
C186     C      0.503160000000     0.740450000000     0.434480000000     0.426222   
C187     C      0.066410000000     0.742310000000     0.991960000000     0.428342   
C188     C      0.445690000000     0.747860000000     0.998590000000     0.425768   
C189     C      0.196460000000     0.750160000000     0.000270000000     0.422948   
C190     C      0.317200000000     0.759420000000     0.008710000000     0.426904   
C191     C      0.262150000000     0.693850000000     0.496370000000     0.432674   
C192     C      0.251340000000     0.814730000000     0.511220000000     0.430744   
C193     C      0.395560000000     0.764950000000     0.473540000000    -0.0122908  
C194     C      0.395820000000     0.731280000000     0.024420000000    -0.0380236  
C195     C      0.366270000000     0.782840000000     0.486250000000    -0.00963568 
C196     C      0.369780000000     0.753130000000     0.038420000000     0.0765796  
C197     C      0.352880000000     0.736490000000     0.066760000000    -0.185772   
C198     C      0.145330000000     0.733160000000     0.023710000000    -0.0128931  
C199     C      0.147310000000     0.771810000000     0.476630000000    -0.0406862  
C200     C      0.116240000000     0.717030000000     0.008590000000    -0.00809327 
C201     C      0.116820000000     0.756620000000     0.463100000000     0.0782566  
C202     C      0.097910000000     0.781250000000     0.443110000000    -0.187281   
C203     C      0.281640000000     0.896260000000     0.011650000000    -0.0124228  
C204     C      0.231820000000     0.896170000000     0.044870000000    -0.0392127  
C205     C      0.270060000000     0.866830000000     0.493470000000    -0.00721452 
C206     C      0.222100000000     0.863740000000     0.529620000000     0.0762282  
C207     C      0.203810000000     0.843220000000     0.054350000000    -0.186823   
C208     C      0.224260000000     0.619750000000     0.497270000000    -0.0143646  
C209     C      0.273370000000     0.619220000000     0.032050000000    -0.0408263  
C210     C      0.240520000000     0.643880000000     0.474300000000    -0.00848877 
C211     C      0.289640000000     0.642020000000     0.008440000000     0.0818573  
C212     C      0.315990000000     0.661410000000     0.025090000000    -0.189588   
C213     C      0.233960000000     0.969750000000     0.377220000000    -0.0126723  
C214     C      0.267430000000     0.019630000000     0.371710000000    -0.0399516  
C215     C      0.218500000000     0.483990000000     0.407550000000    -0.00814449 
C216     C      0.252440000000     0.533200000000     0.402590000000     0.0784521  
C217     C      0.275190000000     0.556850000000     0.419430000000    -0.186767   
C218     C      0.252760000000     0.969280000000     0.149130000000    -0.0139022  
C219     C      0.216960000000     0.017660000000     0.150590000000    -0.0398843  
C220     C      0.276510000000     0.488160000000     0.128150000000    -0.00886312 
C221     C      0.241080000000     0.536440000000     0.130570000000     0.081567   
C222     C      0.225620000000     0.564280000000     0.111770000000    -0.188231   
C223     C      0.017240000000     0.763920000000     0.381850000000    -0.00935015 
C224     C      0.485520000000     0.712880000000     0.384160000000    -0.039576   
C225     C      0.991850000000     0.779420000000     0.361100000000    -0.00723012 
C226     C      0.460820000000     0.727920000000     0.360670000000     0.0756878  
C227     C      0.445560000000     0.701770000000     0.339450000000    -0.188376   
C228     C      0.991560000000     0.784560000000     0.137110000000    -0.012674   
C229     C      0.040160000000     0.750480000000     0.141980000000    -0.0377792  
C230     C      0.483060000000     0.768540000000     0.105160000000    -0.00967456 
C231     C      0.531690000000     0.732800000000     0.110270000000     0.0769212  
C232     C      0.062610000000     0.722880000000     0.092920000000    -0.188318   
C233     C      0.128330000000     0.523750000000     0.273720000000    -0.0119149  
C234     C      0.129190000000     0.972720000000     0.240850000000    -0.0399562  
C235     C      0.097670000000     0.512680000000     0.289760000000    -0.00780167 
C236     C      0.097010000000     0.963110000000     0.255350000000     0.0779983  
C237     C      0.078260000000     0.942080000000     0.231410000000    -0.186979   
C238     C      0.350280000000     0.974980000000     0.278770000000    -0.00870525 
C239     C      0.344860000000     0.503140000000     0.225540000000    -0.0361464  
C240     C      0.378100000000     0.996640000000     0.287610000000    -0.0116273  
C241     C      0.376030000000     0.521540000000     0.231600000000     0.075306   
C242     C      0.393170000000     0.525560000000     0.198950000000    -0.184616   
C243     C      0.016690000000     0.868020000000     0.269890000000    -0.0120146  
C244     C      0.965200000000     0.867880000000     0.238710000000    -0.0403985  
C245     C      0.502280000000     0.892020000000     0.294100000000    -0.00999773 
C246     C      0.451160000000     0.891460000000     0.263210000000     0.0804457  
C247     C      0.424340000000     0.911830000000     0.248380000000    -0.189313   
C248     C      0.011840000000     0.644770000000     0.274480000000    -0.0106606  
C249     C      0.469950000000     0.643830000000     0.230910000000    -0.0380811  
C250     C      0.022800000000     0.611380000000     0.263750000000    -0.00827755 
C251     C      0.483400000000     0.611890000000     0.218190000000     0.0777775  
C252     C      0.456660000000     0.593570000000     0.200880000000    -0.187082   
C253     C      0.427700000000     0.506840000000     0.758920000000     0.428905   
C254     C      0.047890000000     0.995680000000     0.765160000000     0.432692   
C255     C      0.493850000000     0.562170000000     0.751080000000     0.430019   
C256     C      0.481410000000     0.942200000000     0.772320000000     0.431889   
C257     C      0.492150000000     0.816880000000     0.752200000000     0.426511   
C258     C      0.494490000000     0.694500000000     0.747880000000     0.424645   
C259     C      0.005110000000     0.759270000000     0.689130000000     0.427776   
C260     C      0.981940000000     0.752960000000     0.809840000000     0.431053   
C261     C      0.178280000000     0.994770000000     0.764110000000     0.428004   
C262     C      0.298420000000     0.992790000000     0.759050000000     0.430205   
C263     C      0.235290000000     0.492430000000     0.701150000000     0.427608   
C264     C      0.242360000000     0.495100000000     0.823850000000     0.426244   
C265     C      0.248820000000     0.568540000000     0.514740000000     0.423281   
C266     C      0.252280000000     0.946570000000     0.020620000000     0.426144   
C267     C      0.256150000000     0.511110000000     0.577940000000     0.433396   
C268     C      0.244160000000     0.505840000000     0.955870000000     0.431075   
C269     C      0.009820000000     0.750230000000     0.557090000000     0.429963   
C270     C      0.503160000000     0.740450000000     0.934480000000     0.426222   
C271     C      0.066410000000     0.742310000000     0.491960000000     0.42834    
C272     C      0.445690000000     0.747860000000     0.498590000000     0.425766   
C273     C      0.196460000000     0.750160000000     0.500270000000     0.422952   
C274     C      0.317200000000     0.759420000000     0.508710000000     0.426904   
C275     C      0.262150000000     0.693850000000     0.996370000000     0.432675   
C276     C      0.251340000000     0.814730000000     0.011220000000     0.430744   
C277     C      0.395560000000     0.764950000000     0.973540000000    -0.0122908  
C278     C      0.395820000000     0.731280000000     0.524420000000    -0.0380231  
C279     C      0.366270000000     0.782840000000     0.986250000000    -0.00963477 
C280     C      0.369780000000     0.753130000000     0.538420000000     0.0765796  
C281     C      0.352880000000     0.736490000000     0.566760000000    -0.185772   
C282     C      0.145330000000     0.733160000000     0.523700000000    -0.0127826  
C283     C      0.147310000000     0.771810000000     0.976630000000    -0.0406893  
C284     C      0.116240000000     0.717030000000     0.508590000000    -0.0081369  
C285     C      0.116820000000     0.756620000000     0.963100000000     0.0782601  
C286     C      0.097910000000     0.781250000000     0.943110000000    -0.187282   
C287     C      0.281640000000     0.896260000000     0.511650000000    -0.0124212  
C288     C      0.231820000000     0.896170000000     0.544870000000    -0.0392127  
C289     C      0.270060000000     0.866830000000     0.993470000000    -0.00721222 
C290     C      0.222100000000     0.863740000000     0.029620000000     0.0762281  
C291     C      0.203810000000     0.843220000000     0.554350000000    -0.186824   
C292     C      0.224260000000     0.619750000000     0.997270000000    -0.014427   
C293     C      0.273370000000     0.619220000000     0.532050000000    -0.04084    
C294     C      0.240520000000     0.643880000000     0.974300000000    -0.00847064 
C295     C      0.289640000000     0.642020000000     0.508430000000     0.0818678  
C296     C      0.315990000000     0.661410000000     0.525090000000    -0.189575   
C297     C      0.233960000000     0.969750000000     0.877220000000    -0.0126723  
C298     C      0.267430000000     0.019630000000     0.871710000000    -0.0399515  
C299     C      0.218500000000     0.483990000000     0.907550000000    -0.00814456 
C300     C      0.252440000000     0.533200000000     0.902590000000     0.0784518  
C301     C      0.275190000000     0.556850000000     0.919430000000    -0.186767   
C302     C      0.252760000000     0.969280000000     0.649130000000    -0.013902   
C303     C      0.216960000000     0.017660000000     0.650590000000    -0.0398842  
C304     C      0.276510000000     0.488160000000     0.628150000000    -0.00886317 
C305     C      0.241080000000     0.536440000000     0.630570000000     0.0815667  
C306     C      0.225620000000     0.564280000000     0.611770000000    -0.18823    
C307     C      0.017240000000     0.763920000000     0.881850000000    -0.00934629 
C308     C      0.485520000000     0.712880000000     0.884160000000    -0.0395758  
C309     C      0.991850000000     0.779420000000     0.861100000000    -0.00724287 
C310     C      0.460820000000     0.727920000000     0.860670000000     0.0756878  
C311     C      0.445560000000     0.701770000000     0.839450000000    -0.188376   
C312     C      0.991560000000     0.784560000000     0.637110000000    -0.012686   
C313     C      0.040160000000     0.750480000000     0.641980000000    -0.0377936  
C314     C      0.483060000000     0.768540000000     0.605160000000    -0.00967158 
C315     C      0.531690000000     0.732800000000     0.610270000000     0.0769246  
C316     C      0.062610000000     0.722880000000     0.592920000000    -0.18832    
C317     C      0.128330000000     0.523750000000     0.773720000000    -0.0119178  
C318     C      0.129190000000     0.972720000000     0.740850000000    -0.0399758  
C319     C      0.097670000000     0.512680000000     0.789760000000    -0.00779922 
C320     C      0.097010000000     0.963110000000     0.755340000000     0.0780175  
C321     C      0.078260000000     0.942080000000     0.731410000000    -0.187013   
C322     C      0.350280000000     0.974980000000     0.778770000000    -0.00876261 
C323     C      0.344860000000     0.503140000000     0.725540000000    -0.0360875  
C324     C      0.378100000000     0.996640000000     0.787610000000    -0.0116118  
C325     C      0.376030000000     0.521540000000     0.731600000000     0.075287   
C326     C      0.393170000000     0.525560000000     0.698950000000    -0.184611   
C327     C      0.016690000000     0.868020000000     0.769890000000    -0.0120144  
C328     C      0.965200000000     0.867880000000     0.738710000000    -0.0403996  
C329     C      0.502280000000     0.892020000000     0.794100000000    -0.00999838 
C330     C      0.451160000000     0.891460000000     0.763210000000     0.0804473  
C331     C      0.424340000000     0.911830000000     0.748380000000    -0.189315   
C332     C      0.011840000000     0.644770000000     0.774480000000    -0.0106062  
C333     C      0.469950000000     0.643830000000     0.730910000000    -0.0381198  
C334     C      0.022800000000     0.611380000000     0.763750000000    -0.00829894 
C335     C      0.483400000000     0.611890000000     0.718190000000     0.0777877  
C336     C      0.456660000000     0.593570000000     0.700880000000    -0.187088   
C337     C      0.927700000000     0.006840000000     0.258920000000     0.428829   
C338     C      0.547890000000     0.495680000000     0.265160000000     0.43296    
C339     C      0.993850000000     0.062170000000     0.251080000000     0.42982    
C340     C      0.981410000000     0.442200000000     0.272320000000     0.431648   
C341     C      0.992150000000     0.316880000000     0.252200000000     0.425133   
C342     C      0.994490000000     0.194500000000     0.247880000000     0.423402   
C343     C      0.505100000000     0.259270000000     0.189120000000     0.426389   
C344     C      0.481940000000     0.252960000000     0.309840000000     0.43246    
C345     C      0.678280000000     0.494770000000     0.264110000000     0.428039   
C346     C      0.798420000000     0.492790000000     0.259050000000     0.430255   
C347     C      0.735290000000     0.992430000000     0.201150000000     0.427321   
C348     C      0.742360000000     0.995100000000     0.323850000000     0.42621    
C349     C      0.748820000000     0.068540000000     0.014740000000     0.423346   
C350     C      0.752280000000     0.446560000000     0.520620000000     0.42606    
C351     C      0.756150000000     0.011110000000     0.077940000000     0.433398   
C352     C      0.744160000000     0.005840000000     0.455870000000     0.43108    
C353     C      0.509820000000     0.250230000000     0.057090000000     0.429766   
C354     C      0.003160000000     0.240450000000     0.434480000000     0.426422   
C355     C      0.566410000000     0.242310000000     0.991960000000     0.42814    
C356     C      0.945690000000     0.247860000000     0.998590000000     0.425938   
C357     C      0.696460000000     0.250160000000     0.000270000000     0.422946   
C358     C      0.817200000000     0.259420000000     0.008710000000     0.426892   
C359     C      0.762150000000     0.193850000000     0.496370000000     0.432648   
C360     C      0.751340000000     0.314730000000     0.511220000000     0.430672   
C361     C      0.895560000000     0.264950000000     0.473540000000    -0.0122813  
C362     C      0.895820000000     0.231280000000     0.024420000000    -0.0380053  
C363     C      0.866270000000     0.282840000000     0.486250000000    -0.00963809 
C364     C      0.869780000000     0.253130000000     0.038420000000     0.0765692  
C365     C      0.852880000000     0.236490000000     0.066760000000    -0.185759   
C366     C      0.645330000000     0.233160000000     0.023710000000    -0.0128753  
C367     C      0.647310000000     0.271810000000     0.476630000000    -0.0407133  
C368     C      0.616240000000     0.217030000000     0.008590000000    -0.00804435 
C369     C      0.616820000000     0.256620000000     0.463100000000     0.0782271  
C370     C      0.597910000000     0.281250000000     0.443110000000    -0.187266   
C371     C      0.781640000000     0.396260000000     0.011650000000    -0.012403   
C372     C      0.731820000000     0.396170000000     0.044870000000    -0.0391761  
C373     C      0.770060000000     0.366830000000     0.493470000000    -0.00722114 
C374     C      0.722100000000     0.363740000000     0.529620000000     0.0762132  
C375     C      0.703810000000     0.343220000000     0.054350000000    -0.18681    
C376     C      0.724260000000     0.119750000000     0.497270000000    -0.0143571  
C377     C      0.773370000000     0.119220000000     0.032050000000    -0.0408146  
C378     C      0.740520000000     0.143880000000     0.474300000000    -0.00849009 
C379     C      0.789640000000     0.142020000000     0.008440000000     0.0818505  
C380     C      0.815990000000     0.161410000000     0.025090000000    -0.189577   
C381     C      0.733960000000     0.469750000000     0.377220000000    -0.0126774  
C382     C      0.767430000000     0.519630000000     0.371710000000    -0.0399673  
C383     C      0.718500000000     0.983990000000     0.407550000000    -0.00817882 
C384     C      0.752440000000     0.033200000000     0.402590000000     0.0784186  
C385     C      0.775190000000     0.056850000000     0.419430000000    -0.186706   
C386     C      0.752760000000     0.469280000000     0.149130000000    -0.0138925  
C387     C      0.716960000000     0.517660000000     0.150590000000    -0.0399137  
C388     C      0.776510000000     0.988160000000     0.128150000000    -0.0088963  
C389     C      0.741080000000     0.036440000000     0.130570000000     0.0815208  
C390     C      0.725620000000     0.064280000000     0.111770000000    -0.188105   
C391     C      0.517240000000     0.263920000000     0.381850000000    -0.0108781  
C392     C      0.985520000000     0.212880000000     0.384160000000    -0.0415931  
C393     C      0.491850000000     0.279410000000     0.361100000000    -0.00464063 
C394     C      0.960820000000     0.227920000000     0.360670000000     0.0759496  
C395     C      0.945560000000     0.201770000000     0.339450000000    -0.188513   
C396     C      0.491560000000     0.284560000000     0.137110000000    -0.0107325  
C397     C      0.540160000000     0.250480000000     0.141980000000    -0.0378402  
C398     C      0.983060000000     0.268540000000     0.105160000000    -0.0100081  
C399     C      0.031690000000     0.232800000000     0.110270000000     0.0769886  
C400     C      0.562610000000     0.222870000000     0.092920000000    -0.188325   
C401     C      0.628330000000     0.023750000000     0.273720000000    -0.0119054  
C402     C      0.629190000000     0.472720000000     0.240850000000    -0.0399242  
C403     C      0.597670000000     0.012680000000     0.289760000000    -0.00769985 
C404     C      0.597010000000     0.463110000000     0.255350000000     0.077933   
C405     C      0.578260000000     0.442080000000     0.231410000000    -0.186841   
C406     C      0.850280000000     0.474980000000     0.278770000000    -0.00872892 
C407     C      0.844860000000     0.003140000000     0.225540000000    -0.0360473  
C408     C      0.878100000000     0.496640000000     0.287610000000    -0.0115232  
C409     C      0.876030000000     0.021540000000     0.231600000000     0.0753008  
C410     C      0.893170000000     0.025560000000     0.198950000000    -0.184681   
C411     C      0.516690000000     0.368010000000     0.269890000000    -0.0122585  
C412     C      0.465200000000     0.367880000000     0.238710000000    -0.0402349  
C413     C      0.002280000000     0.392020000000     0.294100000000    -0.00793835 
C414     C      0.951160000000     0.391460000000     0.263210000000     0.0804456  
C415     C      0.924340000000     0.411830000000     0.248380000000    -0.189252   
C416     C      0.511840000000     0.144770000000     0.274480000000    -0.0126496  
C417     C      0.969950000000     0.143830000000     0.230910000000    -0.0378036  
C418     C      0.522800000000     0.111380000000     0.263750000000    -0.00856548 
C419     C      0.983400000000     0.111890000000     0.218190000000     0.0764153  
C420     C      0.956660000000     0.093570000000     0.200880000000    -0.186605   
C421     C      0.927700000000     0.006840000000     0.758920000000     0.428798   
C422     C      0.547890000000     0.495680000000     0.765160000000     0.432933   
C423     C      0.993850000000     0.062170000000     0.751080000000     0.429787   
C424     C      0.981410000000     0.442200000000     0.772320000000     0.431624   
C425     C      0.992150000000     0.316880000000     0.752200000000     0.425132   
C426     C      0.994490000000     0.194500000000     0.747880000000     0.4234     
C427     C      0.505100000000     0.259270000000     0.689130000000     0.426474   
C428     C      0.481940000000     0.252960000000     0.809840000000     0.432461   
C429     C      0.678280000000     0.494770000000     0.764110000000     0.428038   
C430     C      0.798420000000     0.492790000000     0.759050000000     0.430241   
C431     C      0.735290000000     0.992430000000     0.701150000000     0.427322   
C432     C      0.742360000000     0.995100000000     0.823850000000     0.42621    
C433     C      0.748820000000     0.068540000000     0.514740000000     0.423349   
C434     C      0.752280000000     0.446560000000     0.020620000000     0.42606    
C435     C      0.756150000000     0.011110000000     0.577940000000     0.433398   
C436     C      0.744160000000     0.005840000000     0.955870000000     0.431079   
C437     C      0.509820000000     0.250230000000     0.557090000000     0.429766   
C438     C      0.003160000000     0.240450000000     0.934480000000     0.426423   
C439     C      0.566410000000     0.242310000000     0.491960000000     0.428138   
C440     C      0.945690000000     0.247860000000     0.498590000000     0.425936   
C441     C      0.696460000000     0.250160000000     0.500270000000     0.42295    
C442     C      0.817200000000     0.259420000000     0.508710000000     0.426892   
C443     C      0.762150000000     0.193850000000     0.996370000000     0.432649   
C444     C      0.751340000000     0.314730000000     0.011220000000     0.430671   
C445     C      0.895560000000     0.264950000000     0.973540000000    -0.0122813  
C446     C      0.895820000000     0.231280000000     0.524420000000    -0.0380046  
C447     C      0.866270000000     0.282840000000     0.986250000000    -0.00963703 
C448     C      0.869780000000     0.253130000000     0.538420000000     0.0765692  
C449     C      0.852880000000     0.236490000000     0.566760000000    -0.185759   
C450     C      0.645330000000     0.233160000000     0.523700000000    -0.0127647  
C451     C      0.647310000000     0.271810000000     0.976630000000    -0.0407164  
C452     C      0.616240000000     0.217030000000     0.508590000000    -0.00808773 
C453     C      0.616820000000     0.256620000000     0.963100000000     0.0782306  
C454     C      0.597910000000     0.281250000000     0.943110000000    -0.187267   
C455     C      0.781640000000     0.396260000000     0.511650000000    -0.0124011  
C456     C      0.731820000000     0.396170000000     0.544870000000    -0.0391761  
C457     C      0.770060000000     0.366830000000     0.993470000000    -0.00721846 
C458     C      0.722100000000     0.363740000000     0.029620000000     0.0762131  
C459     C      0.703810000000     0.343220000000     0.554350000000    -0.18681    
C460     C      0.724260000000     0.119750000000     0.997270000000    -0.0144192  
C461     C      0.773370000000     0.119220000000     0.532050000000    -0.0408284  
C462     C      0.740520000000     0.143880000000     0.974300000000    -0.00847203 
C463     C      0.789640000000     0.142020000000     0.508430000000     0.0818613  
C464     C      0.815990000000     0.161410000000     0.525090000000    -0.189565   
C465     C      0.733960000000     0.469750000000     0.877220000000    -0.0126773  
C466     C      0.767430000000     0.519630000000     0.871710000000    -0.0399672  
C467     C      0.718500000000     0.983990000000     0.907550000000    -0.00817891 
C468     C      0.752440000000     0.033200000000     0.902590000000     0.0784183  
C469     C      0.775190000000     0.056850000000     0.919430000000    -0.186705   
C470     C      0.752760000000     0.469280000000     0.649130000000    -0.0138924  
C471     C      0.716960000000     0.517660000000     0.650590000000    -0.0399136  
C472     C      0.776510000000     0.988160000000     0.628150000000    -0.00889636 
C473     C      0.741080000000     0.036440000000     0.630570000000     0.0815205  
C474     C      0.725620000000     0.064280000000     0.611770000000    -0.188104   
C475     C      0.517240000000     0.263920000000     0.881850000000    -0.0108743  
C476     C      0.985520000000     0.212880000000     0.884160000000    -0.0415927  
C477     C      0.491850000000     0.279410000000     0.861100000000    -0.00465267 
C478     C      0.960820000000     0.227920000000     0.860670000000     0.0759497  
C479     C      0.945560000000     0.201770000000     0.839450000000    -0.188513   
C480     C      0.491560000000     0.284560000000     0.637110000000    -0.0107447  
C481     C      0.540160000000     0.250480000000     0.641980000000    -0.0378546  
C482     C      0.983060000000     0.268540000000     0.605160000000    -0.010005   
C483     C      0.031690000000     0.232800000000     0.610270000000     0.0769919  
C484     C      0.562610000000     0.222870000000     0.592920000000    -0.188326   
C485     C      0.628330000000     0.023750000000     0.773720000000    -0.0119084  
C486     C      0.629190000000     0.472720000000     0.740850000000    -0.0399438  
C487     C      0.597670000000     0.012680000000     0.789760000000    -0.00769738 
C488     C      0.597010000000     0.463110000000     0.755340000000     0.0779522  
C489     C      0.578260000000     0.442080000000     0.731410000000    -0.186875   
C490     C      0.850280000000     0.474980000000     0.778770000000    -0.00878629 
C491     C      0.844860000000     0.003140000000     0.725540000000    -0.0359884  
C492     C      0.878100000000     0.496640000000     0.787610000000    -0.0115077  
C493     C      0.876030000000     0.021540000000     0.731600000000     0.0752819  
C494     C      0.893170000000     0.025560000000     0.698950000000    -0.184676   
C495     C      0.516690000000     0.368010000000     0.769890000000    -0.0122582  
C496     C      0.465200000000     0.367880000000     0.738710000000    -0.0402359  
C497     C      0.002280000000     0.392020000000     0.794100000000    -0.00793922 
C498     C      0.951160000000     0.391460000000     0.763210000000     0.0804472  
C499     C      0.924340000000     0.411830000000     0.748380000000    -0.189254   
C500     C      0.511840000000     0.144770000000     0.774480000000    -0.0125952  
C501     C      0.969950000000     0.143830000000     0.730910000000    -0.0378422  
C502     C      0.522800000000     0.111380000000     0.763750000000    -0.00858675 
C503     C      0.983400000000     0.111890000000     0.718190000000     0.0764258  
C504     C      0.956660000000     0.093570000000     0.700880000000    -0.186612   
C505     C      0.927700000000     0.506840000000     0.258920000000     0.428866   
C506     C      0.547890000000     0.995680000000     0.265160000000     0.432892   
C507     C      0.993850000000     0.562170000000     0.251080000000     0.429833   
C508     C      0.981410000000     0.942200000000     0.272320000000     0.431754   
C509     C      0.992150000000     0.816880000000     0.252200000000     0.425165   
C510     C      0.994490000000     0.694500000000     0.247880000000     0.42337    
C511     C      0.505100000000     0.759270000000     0.189120000000     0.426387   
C512     C      0.481940000000     0.752960000000     0.309840000000     0.43246    
C513     C      0.678280000000     0.994770000000     0.264110000000     0.428003   
C514     C      0.798420000000     0.992790000000     0.259050000000     0.430221   
C515     C      0.735290000000     0.492430000000     0.201150000000     0.427608   
C516     C      0.742360000000     0.495100000000     0.323850000000     0.426246   
C517     C      0.748820000000     0.568540000000     0.014740000000     0.423286   
C518     C      0.752280000000     0.946570000000     0.520620000000     0.426149   
C519     C      0.756150000000     0.511110000000     0.077940000000     0.433402   
C520     C      0.744160000000     0.505840000000     0.455870000000     0.43108    
C521     C      0.509820000000     0.750230000000     0.057090000000     0.429767   
C522     C      0.003160000000     0.740450000000     0.434480000000     0.426424   
C523     C      0.566410000000     0.742310000000     0.991960000000     0.428148   
C524     C      0.945690000000     0.747860000000     0.998590000000     0.425939   
C525     C      0.696460000000     0.750160000000     0.000270000000     0.42295    
C526     C      0.817200000000     0.759420000000     0.008710000000     0.426904   
C527     C      0.762150000000     0.693850000000     0.496370000000     0.432676   
C528     C      0.751340000000     0.814730000000     0.511220000000     0.430745   
C529     C      0.895560000000     0.764950000000     0.473540000000    -0.012282   
C530     C      0.895820000000     0.731280000000     0.024420000000    -0.0380051  
C531     C      0.866270000000     0.782840000000     0.486250000000    -0.00963631 
C532     C      0.869780000000     0.753130000000     0.038420000000     0.0765673  
C533     C      0.852880000000     0.736490000000     0.066760000000    -0.18576    
C534     C      0.645330000000     0.733160000000     0.023710000000    -0.0128914  
C535     C      0.647310000000     0.771810000000     0.476630000000    -0.0406769  
C536     C      0.616240000000     0.717030000000     0.008590000000    -0.00808654 
C537     C      0.616820000000     0.756620000000     0.463100000000     0.0782494  
C538     C      0.597910000000     0.781250000000     0.443110000000    -0.187271   
C539     C      0.781640000000     0.896260000000     0.011650000000    -0.012417   
C540     C      0.731820000000     0.896170000000     0.044870000000    -0.0392073  
C541     C      0.770060000000     0.866830000000     0.493470000000    -0.00721505 
C542     C      0.722100000000     0.863740000000     0.529620000000     0.076225   
C543     C      0.703810000000     0.843220000000     0.054350000000    -0.186815   
C544     C      0.724260000000     0.619750000000     0.497270000000    -0.0143585  
C545     C      0.773370000000     0.619220000000     0.032050000000    -0.0408205  
C546     C      0.740520000000     0.643880000000     0.474300000000    -0.00848871 
C547     C      0.789640000000     0.642020000000     0.008440000000     0.0818517  
C548     C      0.815990000000     0.661410000000     0.025090000000    -0.189575   
C549     C      0.733960000000     0.969750000000     0.377220000000    -0.0126723  
C550     C      0.767430000000     0.019630000000     0.371710000000    -0.0399241  
C551     C      0.718500000000     0.483990000000     0.407550000000    -0.00813901 
C552     C      0.752440000000     0.533200000000     0.402590000000     0.0784422  
C553     C      0.775190000000     0.556850000000     0.419430000000    -0.186755   
C554     C      0.752760000000     0.969280000000     0.149130000000    -0.0138996  
C555     C      0.716960000000     0.017660000000     0.150590000000    -0.0398735  
C556     C      0.776510000000     0.488160000000     0.128150000000    -0.00886011 
C557     C      0.741080000000     0.536440000000     0.130570000000     0.0815588  
C558     C      0.725620000000     0.564280000000     0.111770000000    -0.188218   
C559     C      0.517240000000     0.763920000000     0.381850000000    -0.0108284  
C560     C      0.985520000000     0.712880000000     0.384160000000    -0.0415891  
C561     C      0.491850000000     0.779420000000     0.361100000000    -0.00475718 
C562     C      0.960820000000     0.727920000000     0.360670000000     0.075947   
C563     C      0.945560000000     0.701770000000     0.339450000000    -0.188512   
C564     C      0.491560000000     0.784560000000     0.137110000000    -0.0107323  
C565     C      0.540160000000     0.750480000000     0.141980000000    -0.0378398  
C566     C      0.983060000000     0.768540000000     0.105160000000    -0.010008   
C567     C      0.031690000000     0.732800000000     0.110270000000     0.0769946  
C568     C      0.562610000000     0.722880000000     0.092920000000    -0.188289   
C569     C      0.628330000000     0.523750000000     0.273720000000    -0.011919   
C570     C      0.629190000000     0.972720000000     0.240850000000    -0.0399292  
C571     C      0.597670000000     0.512680000000     0.289760000000    -0.00778984 
C572     C      0.597010000000     0.963110000000     0.255350000000     0.077936   
C573     C      0.578260000000     0.942080000000     0.231410000000    -0.186842   
C574     C      0.850280000000     0.974980000000     0.278770000000    -0.00870458 
C575     C      0.844860000000     0.503140000000     0.225540000000    -0.0361386  
C576     C      0.878100000000     0.996640000000     0.287610000000    -0.011624   
C577     C      0.876030000000     0.521540000000     0.231600000000     0.0752966  
C578     C      0.893170000000     0.525560000000     0.198950000000    -0.184597   
C579     C      0.516690000000     0.868020000000     0.269890000000    -0.0122872  
C580     C      0.465200000000     0.867880000000     0.238710000000    -0.0402413  
C581     C      0.002280000000     0.892020000000     0.294100000000    -0.00791741 
C582     C      0.951160000000     0.891460000000     0.263210000000     0.0804629  
C583     C      0.924340000000     0.911830000000     0.248380000000    -0.189311   
C584     C      0.511840000000     0.644770000000     0.274480000000    -0.0126528  
C585     C      0.969950000000     0.643830000000     0.230910000000    -0.0378048  
C586     C      0.522800000000     0.611380000000     0.263750000000    -0.00856377 
C587     C      0.983400000000     0.611890000000     0.218190000000     0.0764168  
C588     C      0.956660000000     0.593570000000     0.200880000000    -0.186604   
C589     C      0.927700000000     0.506840000000     0.758920000000     0.428835   
C590     C      0.547890000000     0.995680000000     0.765160000000     0.432865   
C591     C      0.993850000000     0.562170000000     0.751080000000     0.4298     
C592     C      0.981410000000     0.942200000000     0.772320000000     0.43173    
C593     C      0.992150000000     0.816880000000     0.752200000000     0.425164   
C594     C      0.994490000000     0.694500000000     0.747880000000     0.423368   
C595     C      0.505100000000     0.759270000000     0.689130000000     0.426472   
C596     C      0.481940000000     0.752960000000     0.809840000000     0.432461   
C597     C      0.678280000000     0.994770000000     0.764110000000     0.428002   
C598     C      0.798420000000     0.992790000000     0.759050000000     0.430207   
C599     C      0.735290000000     0.492430000000     0.701150000000     0.427609   
C600     C      0.742360000000     0.495100000000     0.823850000000     0.426245   
C601     C      0.748820000000     0.568540000000     0.514740000000     0.423288   
C602     C      0.752280000000     0.946570000000     0.020620000000     0.426149   
C603     C      0.756150000000     0.511110000000     0.577940000000     0.433401   
C604     C      0.744160000000     0.505840000000     0.955870000000     0.43108    
C605     C      0.509820000000     0.750230000000     0.557090000000     0.429767   
C606     C      0.003160000000     0.740450000000     0.934480000000     0.426424   
C607     C      0.566410000000     0.742310000000     0.491960000000     0.428146   
C608     C      0.945690000000     0.747860000000     0.498590000000     0.425937   
C609     C      0.696460000000     0.750160000000     0.500270000000     0.422953   
C610     C      0.817200000000     0.759420000000     0.508710000000     0.426904   
C611     C      0.762150000000     0.693850000000     0.996370000000     0.432676   
C612     C      0.751340000000     0.814730000000     0.011220000000     0.430745   
C613     C      0.895560000000     0.764950000000     0.973540000000    -0.012282   
C614     C      0.895820000000     0.731280000000     0.524420000000    -0.0380044  
C615     C      0.866270000000     0.782840000000     0.986250000000    -0.00963525 
C616     C      0.869780000000     0.753130000000     0.538420000000     0.0765673  
C617     C      0.852880000000     0.736490000000     0.566760000000    -0.18576    
C618     C      0.645330000000     0.733160000000     0.523700000000    -0.0127807  
C619     C      0.647310000000     0.771810000000     0.976630000000    -0.0406801  
C620     C      0.616240000000     0.717030000000     0.508590000000    -0.00812992 
C621     C      0.616820000000     0.756620000000     0.963100000000     0.0782529  
C622     C      0.597910000000     0.781250000000     0.943110000000    -0.187273   
C623     C      0.781640000000     0.896260000000     0.511650000000    -0.0124151  
C624     C      0.731820000000     0.896170000000     0.544870000000    -0.0392073  
C625     C      0.770060000000     0.866830000000     0.993470000000    -0.00721239 
C626     C      0.722100000000     0.863740000000     0.029620000000     0.0762249  
C627     C      0.703810000000     0.843220000000     0.554350000000    -0.186815   
C628     C      0.724260000000     0.619750000000     0.997270000000    -0.0144206  
C629     C      0.773370000000     0.619220000000     0.532050000000    -0.0408343  
C630     C      0.740520000000     0.643880000000     0.974300000000    -0.00847065 
C631     C      0.789640000000     0.642020000000     0.508430000000     0.0818625  
C632     C      0.815990000000     0.661410000000     0.525090000000    -0.189562   
C633     C      0.733960000000     0.969750000000     0.877220000000    -0.0126723  
C634     C      0.767430000000     0.019630000000     0.871710000000    -0.039924   
C635     C      0.718500000000     0.483990000000     0.907550000000    -0.00813909 
C636     C      0.752440000000     0.533200000000     0.902590000000     0.078442   
C637     C      0.775190000000     0.556850000000     0.919430000000    -0.186754   
C638     C      0.752760000000     0.969280000000     0.649130000000    -0.0138994  
C639     C      0.716960000000     0.017660000000     0.650590000000    -0.0398734  
C640     C      0.776510000000     0.488160000000     0.628150000000    -0.00886017 
C641     C      0.741080000000     0.536440000000     0.630570000000     0.0815586  
C642     C      0.725620000000     0.564280000000     0.611770000000    -0.188217   
C643     C      0.517240000000     0.763920000000     0.881850000000    -0.0108247  
C644     C      0.985520000000     0.712880000000     0.884160000000    -0.0415887  
C645     C      0.491850000000     0.779420000000     0.861100000000    -0.00476926 
C646     C      0.960820000000     0.727920000000     0.860670000000     0.075947   
C647     C      0.945560000000     0.701770000000     0.839450000000    -0.188512   
C648     C      0.491560000000     0.784560000000     0.637110000000    -0.0107445  
C649     C      0.540160000000     0.750480000000     0.641980000000    -0.0378541  
C650     C      0.983060000000     0.768540000000     0.605160000000    -0.0100049  
C651     C      0.031690000000     0.732800000000     0.610270000000     0.076998   
C652     C      0.562610000000     0.722880000000     0.592920000000    -0.18829    
C653     C      0.628330000000     0.523750000000     0.773720000000    -0.0119219  
C654     C      0.629190000000     0.972720000000     0.740850000000    -0.0399488  
C655     C      0.597670000000     0.512680000000     0.789760000000    -0.00778738 
C656     C      0.597010000000     0.963110000000     0.755340000000     0.0779552  
C657     C      0.578260000000     0.942080000000     0.731410000000    -0.186876   
C658     C      0.850280000000     0.974980000000     0.778770000000    -0.00876195 
C659     C      0.844860000000     0.503140000000     0.725540000000    -0.0360798  
C660     C      0.878100000000     0.996640000000     0.787610000000    -0.0116085  
C661     C      0.876030000000     0.521540000000     0.731600000000     0.0752777  
C662     C      0.893170000000     0.525560000000     0.698950000000    -0.184592   
C663     C      0.516690000000     0.868020000000     0.769890000000    -0.0122869  
C664     C      0.465200000000     0.867880000000     0.738710000000    -0.0402423  
C665     C      0.002280000000     0.892020000000     0.794100000000    -0.00791828 
C666     C      0.951160000000     0.891460000000     0.763210000000     0.0804645  
C667     C      0.924340000000     0.911830000000     0.748380000000    -0.189313   
C668     C      0.511840000000     0.644770000000     0.774480000000    -0.0125984  
C669     C      0.969950000000     0.643830000000     0.730910000000    -0.0378435  
C670     C      0.522800000000     0.611380000000     0.763750000000    -0.00858504 
C671     C      0.983400000000     0.611890000000     0.718190000000     0.0764272  
C672     C      0.956660000000     0.593570000000     0.700880000000    -0.186611   
H1       H      0.339210000000     0.215470000000     0.058360000000     0.0712327  
H2       H      0.384640000000     0.209850000000     0.513090000000     0.0441493  
H3       H      0.387260000000     0.246080000000     0.456510000000     0.0381323  
H4       H      0.350800000000     0.289530000000     0.465550000000     0.0408576  
H5       H      0.411920000000     0.222970000000     0.044080000000     0.0424471  
H6       H      0.370580000000     0.227990000000     0.084730000000     0.0588714  
H7       H      0.382020000000     0.274500000000     0.048750000000     0.0196059  
H8       H      0.410730000000     0.281780000000     0.459480000000     0.0396132  
H9       H      0.374600000000     0.305650000000     0.997360000000     0.0362807  
H10      H      0.337220000000     0.253680000000     0.079630000000     0.0772915  
H11      H      0.090620000000     0.302030000000     0.458200000000     0.077603   
H12      H      0.140830000000     0.293730000000     0.490520000000     0.0427989  
H13      H      0.137150000000     0.251020000000     0.041880000000     0.0372164  
H14      H      0.101340000000     0.206600000000     0.028160000000     0.0326927  
H15      H      0.162690000000     0.279620000000     0.456240000000     0.0484346  
H16      H      0.112810000000     0.290440000000     0.422970000000     0.06102    
H17      H      0.124590000000     0.237580000000     0.445930000000     0.0185027  
H18      H      0.159610000000     0.214600000000     0.036460000000     0.0385699  
H19      H      0.124380000000     0.197140000000     0.992670000000     0.0384114  
H20      H      0.076710000000     0.269770000000     0.432160000000     0.0746674  
H21      H      0.219620000000     0.335650000000     0.074440000000     0.0774888  
H22      H      0.243870000000     0.391380000000     0.068310000000     0.0423879  
H23      H      0.296730000000     0.388360000000     0.032220000000     0.0395936  
H24      H      0.291120000000     0.353120000000     0.484840000000     0.0377018  
H25      H      0.210170000000     0.410460000000     0.050310000000     0.0479532  
H26      H      0.183870000000     0.357290000000     0.064740000000     0.0609153  
H27      H      0.205130000000     0.369510000000     0.509830000000     0.0176672  
H28      H      0.296460000000     0.410910000000     0.495000000000     0.0424864  
H29      H      0.256220000000     0.374700000000     0.471980000000     0.0407608  
H30      H      0.193310000000     0.321780000000     0.542490000000     0.0752431  
H31      H      0.306940000000     0.172950000000     0.047420000000     0.0737005  
H32      H      0.262030000000     0.133660000000     0.051510000000     0.0451625  
H33      H      0.209700000000     0.133450000000     0.014940000000     0.039428   
H34      H      0.222340000000     0.160250000000     0.463830000000     0.03626    
H35      H      0.291160000000     0.103210000000     0.043680000000     0.0460067  
H36      H      0.335720000000     0.145150000000     0.032080000000     0.0605514  
H37      H      0.301340000000     0.126780000000     0.489790000000     0.0188456  
H38      H      0.208230000000     0.103920000000     0.483040000000     0.0388684  
H39      H      0.251730000000     0.130210000000     0.454240000000     0.034431   
H40      H      0.325700000000     0.179870000000     0.008410000000     0.0705352  
H41      H      0.297740000000     0.544870000000     0.426280000000     0.0786942  
H42      H      0.290080000000     0.507530000000     0.378230000000     0.0448059  
H43      H      0.253920000000     0.453990000000     0.384790000000     0.040468   
H44      H      0.211640000000     0.464070000000     0.424090000000     0.0382279  
H45      H      0.273380000000     0.039650000000     0.354960000000     0.04902    
H46      H      0.281010000000     0.076940000000     0.402770000000     0.0617339  
H47      H      0.231510000000     0.047520000000     0.394730000000     0.0190908  
H48      H      0.216180000000     0.454750000000     0.364310000000     0.0416235  
H49      H      0.196600000000     0.997030000000     0.400290000000     0.0395538  
H50      H      0.263810000000     0.067510000000     0.441130000000     0.0747679  
H51      H      0.204510000000     0.556230000000     0.097950000000     0.079214   
H52      H      0.199480000000     0.506450000000     0.133880000000     0.0477339  
H53      H      0.236790000000     0.455490000000     0.132850000000     0.0390161  
H54      H      0.288910000000     0.471280000000     0.111540000000     0.0370284  
H55      H      0.203730000000     0.034070000000     0.166980000000     0.0480582  
H56      H      0.217610000000     0.083050000000     0.129030000000     0.0617425  
H57      H      0.257860000000     0.047610000000     0.148080000000     0.0199623  
H58      H      0.265950000000     0.451990000000     0.164590000000     0.0402169  
H59      H      0.294450000000     0.999350000000     0.144330000000     0.0351129  
H60      H      0.243070000000     0.075460000000     0.095080000000     0.0715536  
H61      H      0.963420000000     0.190500000000     0.323280000000     0.0712337  
H62      H      0.002980000000     0.198790000000     0.369830000000     0.0458735  
H63      H      0.035320000000     0.253000000000     0.365640000000     0.0422675  
H64      H      0.002620000000     0.298320000000     0.345520000000     0.0370029  
H65      H      0.473330000000     0.196230000000     0.401130000000     0.0468104  
H66      H      0.435090000000     0.182740000000     0.354950000000     0.0623572  
H67      H      0.441770000000     0.238500000000     0.375960000000     0.0188692  
H68      H      0.029370000000     0.282630000000     0.396480000000     0.038087   
H69      H      0.474290000000     0.291190000000     0.377290000000     0.0387347  
H70      H      0.426070000000     0.212150000000     0.324750000000     0.0793027  
H71      H      0.074430000000     0.244160000000     0.082080000000     0.0694283  
H72      H      0.056350000000     0.270860000000     0.136400000000     0.0450297  
H73      H      0.005340000000     0.306670000000     0.131610000000     0.0383851  
H74      H      0.471860000000     0.286620000000     0.088950000000     0.0381611  
H75      H      0.052790000000     0.233690000000     0.158500000000     0.0461537  
H76      H      0.079300000000     0.211400000000     0.110200000000     0.060987   
H77      H      0.518530000000     0.210570000000     0.116840000000     0.0218866  
H78      H      0.469470000000     0.292130000000     0.149680000000     0.040158   
H79      H      0.464930000000     0.249760000000     0.110070000000     0.0368756  
H80      H      0.557860000000     0.204890000000     0.073770000000     0.0786     
H81      H      0.072980000000     0.455460000000     0.208810000000     0.0780128  
H82      H      0.125030000000     0.484450000000     0.217050000000     0.0443183  
H83      H      0.122350000000     0.039680000000     0.253020000000     0.0402068  
H84      H      0.083770000000     0.034270000000     0.296950000000     0.038349   
H85      H      0.143490000000     0.450740000000     0.236250000000     0.0490396  
H86      H      0.092370000000     0.420490000000     0.224940000000     0.0613148  
H87      H      0.102330000000     0.447690000000     0.276650000000     0.0177206  
H88      H      0.142330000000     0.037900000000     0.291540000000     0.0411512  
H89      H      0.103650000000     0.998920000000     0.312000000000     0.0397479  
H90      H      0.055890000000     0.433520000000     0.242630000000     0.0747135  
H91      H      0.401140000000     0.001960000000     0.189390000000     0.0748394  
H92      H      0.350020000000     0.981500000000     0.210630000000     0.0401105  
H93      H      0.359470000000     0.452630000000     0.267430000000     0.0361059  
H94      H      0.393600000000     0.483280000000     0.304730000000     0.039237   
H95      H      0.328230000000     0.018410000000     0.211330000000     0.0431007  
H96      H      0.376900000000     0.036500000000     0.180890000000     0.0585117  
H97      H      0.369180000000     0.046010000000     0.239850000000     0.0178205  
H98      H      0.336920000000     0.468500000000     0.301050000000     0.0356792  
H99      H      0.368890000000     0.518290000000     0.300260000000     0.0407826  
H100     H      0.413570000000     0.041950000000     0.201130000000     0.0732182  
H101     H      0.932140000000     0.424130000000     0.225940000000     0.0782534  
H102     H      0.975020000000     0.381800000000     0.218050000000     0.0468902  
H103     H      0.030110000000     0.381660000000     0.251300000000     0.0362941  
H104     H      0.021320000000     0.407920000000     0.303670000000     0.0338726  
H105     H      0.446190000000     0.352040000000     0.229030000000     0.0482526  
H106     H      0.403940000000     0.396140000000     0.242140000000     0.0625213  
H107     H      0.440190000000     0.376650000000     0.282630000000     0.0200833  
H108     H      0.033650000000     0.352190000000     0.282930000000     0.0396678  
H109     H      0.491950000000     0.378260000000     0.314590000000     0.0375563  
H110     H      0.415960000000     0.429960000000     0.266120000000     0.0716278  
H111     H      0.438840000000     0.085490000000     0.218860000000     0.067623   
H112     H      0.449700000000     0.138870000000     0.247440000000     0.0457816  
H113     H      0.995840000000     0.141780000000     0.295630000000     0.0343508  
H114     H      0.030920000000     0.097560000000     0.285240000000     0.0382558  
H115     H      0.460860000000     0.158200000000     0.210160000000     0.0458686  
H116     H      0.444600000000     0.109390000000     0.183070000000     0.0591014  
H117     H      0.502160000000     0.117620000000     0.200150000000     0.0198081  
H118     H      0.032750000000     0.158750000000     0.282880000000     0.0405996  
H119     H      0.043730000000     0.114520000000     0.247690000000     0.0359819  
H120     H      0.466080000000     0.072930000000     0.186940000000     0.0764337  
H121     H      0.339210000000     0.215470000000     0.558360000000     0.0712329  
H122     H      0.384640000000     0.209850000000     0.013090000000     0.0441495  
H123     H      0.387260000000     0.246080000000     0.956510000000     0.0381325  
H124     H      0.350800000000     0.289530000000     0.965550000000     0.0408576  
H125     H      0.411920000000     0.222970000000     0.544080000000     0.0424473  
H126     H      0.370580000000     0.227990000000     0.584730000000     0.0588719  
H127     H      0.382020000000     0.274500000000     0.548750000000     0.0196064  
H128     H      0.410730000000     0.281780000000     0.959480000000     0.0396132  
H129     H      0.374600000000     0.305650000000     0.497360000000     0.0362802  
H130     H      0.337220000000     0.253680000000     0.579630000000     0.0772919  
H131     H      0.090620000000     0.302030000000     0.958200000000     0.0776036  
H132     H      0.140830000000     0.293730000000     0.990520000000     0.0428009  
H133     H      0.137150000000     0.251020000000     0.541880000000     0.0371818  
H134     H      0.101340000000     0.206600000000     0.528160000000     0.032702   
H135     H      0.162690000000     0.279620000000     0.956240000000     0.0484354  
H136     H      0.112810000000     0.290440000000     0.922970000000     0.0610205  
H137     H      0.124590000000     0.237580000000     0.945930000000     0.0185024  
H138     H      0.159610000000     0.214600000000     0.536460000000     0.0385355  
H139     H      0.124380000000     0.197140000000     0.492670000000     0.038419   
H140     H      0.076710000000     0.269770000000     0.932160000000     0.0746677  
H141     H      0.219620000000     0.335650000000     0.574440000000     0.0774891  
H142     H      0.243870000000     0.391380000000     0.568310000000     0.0423882  
H143     H      0.296730000000     0.388360000000     0.532220000000     0.0395936  
H144     H      0.291120000000     0.353120000000     0.984840000000     0.0377017  
H145     H      0.210170000000     0.410460000000     0.550310000000     0.0479533  
H146     H      0.183870000000     0.357290000000     0.564740000000     0.0609157  
H147     H      0.205130000000     0.369510000000     0.009830000000     0.0176675  
H148     H      0.296460000000     0.410910000000     0.995000000000     0.0424877  
H149     H      0.256220000000     0.374700000000     0.971980000000     0.0407606  
H150     H      0.193310000000     0.321780000000     0.042490000000     0.0752431  
H151     H      0.306940000000     0.172950000000     0.547420000000     0.0736992  
H152     H      0.262030000000     0.133660000000     0.551510000000     0.0451633  
H153     H      0.209700000000     0.133450000000     0.514940000000     0.0394116  
H154     H      0.222340000000     0.160250000000     0.963830000000     0.0362567  
H155     H      0.291160000000     0.103210000000     0.543680000000     0.0460098  
H156     H      0.335720000000     0.145150000000     0.532080000000     0.0605497  
H157     H      0.301340000000     0.126780000000     0.989790000000     0.0188603  
H158     H      0.208230000000     0.103920000000     0.983050000000     0.0388902  
H159     H      0.251730000000     0.130210000000     0.954240000000     0.0344256  
H160     H      0.325700000000     0.179870000000     0.508410000000     0.0705311  
H161     H      0.297740000000     0.544870000000     0.926280000000     0.0786939  
H162     H      0.290080000000     0.507530000000     0.878230000000     0.0448056  
H163     H      0.253920000000     0.453990000000     0.884790000000     0.0404679  
H164     H      0.211640000000     0.464070000000     0.924090000000     0.0382282  
H165     H      0.273380000000     0.039650000000     0.854960000000     0.0490198  
H166     H      0.281010000000     0.076940000000     0.902770000000     0.0617337  
H167     H      0.231510000000     0.047520000000     0.894730000000     0.019091   
H168     H      0.216180000000     0.454750000000     0.864310000000     0.0416236  
H169     H      0.196600000000     0.997030000000     0.900290000000     0.0395541  
H170     H      0.263810000000     0.067510000000     0.941130000000     0.0747664  
H171     H      0.204510000000     0.556230000000     0.597950000000     0.0792135  
H172     H      0.199480000000     0.506450000000     0.633880000000     0.0477342  
H173     H      0.236790000000     0.455490000000     0.632850000000     0.0390163  
H174     H      0.288910000000     0.471280000000     0.611540000000     0.037029   
H175     H      0.203730000000     0.034070000000     0.666980000000     0.0480583  
H176     H      0.217610000000     0.083050000000     0.629030000000     0.0617424  
H177     H      0.257860000000     0.047610000000     0.648080000000     0.0199626  
H178     H      0.265950000000     0.451990000000     0.664590000000     0.0402176  
H179     H      0.294450000000     0.999350000000     0.644330000000     0.0351138  
H180     H      0.243070000000     0.075460000000     0.595080000000     0.0715516  
H181     H      0.963420000000     0.190500000000     0.823280000000     0.0712357  
H182     H      0.002980000000     0.198790000000     0.869830000000     0.0458739  
H183     H      0.035320000000     0.253000000000     0.865640000000     0.0422671  
H184     H      0.002620000000     0.298320000000     0.845530000000     0.037004   
H185     H      0.473330000000     0.196230000000     0.901130000000     0.0468106  
H186     H      0.435090000000     0.182740000000     0.854950000000     0.0623579  
H187     H      0.441770000000     0.238500000000     0.875960000000     0.0188694  
H188     H      0.029370000000     0.282630000000     0.896480000000     0.0380857  
H189     H      0.474290000000     0.291190000000     0.877290000000     0.0387372  
H190     H      0.426070000000     0.212150000000     0.824750000000     0.0793034  
H191     H      0.074430000000     0.244160000000     0.582080000000     0.069429   
H192     H      0.056350000000     0.270860000000     0.636400000000     0.0450333  
H193     H      0.005340000000     0.306670000000     0.631610000000     0.0383877  
H194     H      0.471860000000     0.286620000000     0.588950000000     0.0381611  
H195     H      0.052790000000     0.233690000000     0.658500000000     0.0461606  
H196     H      0.079300000000     0.211400000000     0.610200000000     0.0609878  
H197     H      0.518530000000     0.210570000000     0.616840000000     0.0218865  
H198     H      0.469470000000     0.292130000000     0.649680000000     0.0401648  
H199     H      0.464930000000     0.249760000000     0.610070000000     0.0368763  
H200     H      0.557860000000     0.204890000000     0.573770000000     0.0786003  
H201     H      0.072980000000     0.455460000000     0.708810000000     0.0780248  
H202     H      0.125030000000     0.484450000000     0.717050000000     0.0443215  
H203     H      0.122350000000     0.039680000000     0.753010000000     0.0402031  
H204     H      0.083770000000     0.034270000000     0.796950000000     0.0383502  
H205     H      0.143490000000     0.450740000000     0.736250000000     0.0490434  
H206     H      0.092370000000     0.420490000000     0.724940000000     0.0613225  
H207     H      0.102330000000     0.447690000000     0.776650000000     0.0177302  
H208     H      0.142330000000     0.037900000000     0.791530000000     0.0411605  
H209     H      0.103650000000     0.998920000000     0.812000000000     0.0397486  
H210     H      0.055890000000     0.433520000000     0.742630000000     0.0747243  
H211     H      0.401140000000     0.001960000000     0.689390000000     0.0748444  
H212     H      0.350020000000     0.981500000000     0.710630000000     0.0401007  
H213     H      0.359470000000     0.452630000000     0.767430000000     0.0361215  
H214     H      0.393600000000     0.483280000000     0.804730000000     0.0392347  
H215     H      0.328230000000     0.018410000000     0.711330000000     0.0430887  
H216     H      0.376900000000     0.036500000000     0.680890000000     0.0585116  
H217     H      0.369180000000     0.046010000000     0.739850000000     0.0178242  
H218     H      0.336920000000     0.468500000000     0.801050000000     0.0356895  
H219     H      0.368890000000     0.518290000000     0.800260000000     0.0407772  
H220     H      0.413570000000     0.041950000000     0.701130000000     0.0732218  
H221     H      0.932140000000     0.424130000000     0.725940000000     0.0782595  
H222     H      0.975020000000     0.381800000000     0.718050000000     0.0468939  
H223     H      0.030110000000     0.381660000000     0.751300000000     0.0362953  
H224     H      0.021320000000     0.407920000000     0.803670000000     0.0338734  
H225     H      0.446190000000     0.352040000000     0.729030000000     0.0482538  
H226     H      0.403940000000     0.396140000000     0.742140000000     0.0625226  
H227     H      0.440190000000     0.376650000000     0.782630000000     0.0200833  
H228     H      0.033650000000     0.352190000000     0.782930000000     0.0396684  
H229     H      0.491950000000     0.378260000000     0.814590000000     0.0375569  
H230     H      0.415960000000     0.429960000000     0.766120000000     0.0716292  
H231     H      0.438840000000     0.085490000000     0.718860000000     0.0676264  
H232     H      0.449700000000     0.138870000000     0.747440000000     0.0457941  
H233     H      0.995840000000     0.141780000000     0.795630000000     0.0343428  
H234     H      0.030920000000     0.097560000000     0.785240000000     0.0382616  
H235     H      0.460860000000     0.158200000000     0.710160000000     0.0458751  
H236     H      0.444600000000     0.109390000000     0.683070000000     0.0591043  
H237     H      0.502160000000     0.117620000000     0.700150000000     0.0198048  
H238     H      0.032750000000     0.158750000000     0.782880000000     0.0405879  
H239     H      0.043730000000     0.114520000000     0.747690000000     0.0359862  
H240     H      0.466080000000     0.072930000000     0.686940000000     0.0764425  
H241     H      0.339210000000     0.715470000000     0.058360000000     0.0712218  
H242     H      0.384640000000     0.709850000000     0.513090000000     0.0441473  
H243     H      0.387260000000     0.746080000000     0.456510000000     0.0381315  
H244     H      0.350800000000     0.789530000000     0.465550000000     0.0408579  
H245     H      0.411920000000     0.722970000000     0.044080000000     0.0424467  
H246     H      0.370580000000     0.727990000000     0.084730000000     0.0588716  
H247     H      0.382020000000     0.774500000000     0.048750000000     0.0196081  
H248     H      0.410730000000     0.781780000000     0.459480000000     0.0396125  
H249     H      0.374600000000     0.805650000000     0.997360000000     0.0362814  
H250     H      0.337220000000     0.753680000000     0.079630000000     0.0772925  
H251     H      0.090620000000     0.802030000000     0.458200000000     0.0776054  
H252     H      0.140830000000     0.793730000000     0.490520000000     0.0427965  
H253     H      0.137150000000     0.751020000000     0.041880000000     0.0372253  
H254     H      0.101340000000     0.706600000000     0.028160000000     0.0327013  
H255     H      0.162690000000     0.779620000000     0.456240000000     0.0484257  
H256     H      0.112810000000     0.790440000000     0.422970000000     0.0610197  
H257     H      0.124590000000     0.737580000000     0.445930000000     0.0184915  
H258     H      0.159610000000     0.714600000000     0.036460000000     0.0385696  
H259     H      0.124380000000     0.697140000000     0.992670000000     0.0384136  
H260     H      0.076710000000     0.769770000000     0.432160000000     0.0746687  
H261     H      0.219620000000     0.835650000000     0.074440000000     0.0774935  
H262     H      0.243870000000     0.891380000000     0.068310000000     0.0423943  
H263     H      0.296730000000     0.888360000000     0.032220000000     0.0395971  
H264     H      0.291120000000     0.853120000000     0.484840000000     0.0377016  
H265     H      0.210170000000     0.910450000000     0.050310000000     0.0479592  
H266     H      0.183870000000     0.857290000000     0.064740000000     0.0609146  
H267     H      0.205130000000     0.869510000000     0.509830000000     0.0176631  
H268     H      0.296460000000     0.910910000000     0.495000000000     0.0424897  
H269     H      0.256220000000     0.874700000000     0.471980000000     0.0407576  
H270     H      0.193310000000     0.821780000000     0.542490000000     0.0752454  
H271     H      0.306940000000     0.672950000000     0.047420000000     0.0736959  
H272     H      0.262030000000     0.633660000000     0.051510000000     0.0451628  
H273     H      0.209700000000     0.633450000000     0.014940000000     0.0394264  
H274     H      0.222340000000     0.660250000000     0.463830000000     0.0362577  
H275     H      0.291160000000     0.603210000000     0.043680000000     0.0459997  
H276     H      0.335720000000     0.645150000000     0.032080000000     0.0605483  
H277     H      0.301340000000     0.626780000000     0.489790000000     0.0188409  
H278     H      0.208230000000     0.603920000000     0.483040000000     0.0388667  
H279     H      0.251730000000     0.630210000000     0.454240000000     0.0344292  
H280     H      0.325700000000     0.679870000000     0.008410000000     0.0705291  
H281     H      0.297740000000     0.044860000000     0.426280000000     0.078676   
H282     H      0.290080000000     0.007530000000     0.378230000000     0.0448115  
H283     H      0.253920000000     0.953990000000     0.384790000000     0.0404569  
H284     H      0.211640000000     0.964070000000     0.424090000000     0.038226   
H285     H      0.273380000000     0.539650000000     0.354960000000     0.0490243  
H286     H      0.281010000000     0.576940000000     0.402770000000     0.0617407  
H287     H      0.231510000000     0.547520000000     0.394730000000     0.0190784  
H288     H      0.216180000000     0.954750000000     0.364310000000     0.0416169  
H289     H      0.196600000000     0.497030000000     0.400290000000     0.0395625  
H290     H      0.263810000000     0.567510000000     0.441130000000     0.0747782  
H291     H      0.204510000000     0.056220000000     0.097950000000     0.0791877  
H292     H      0.199480000000     0.006450000000     0.133880000000     0.0477412  
H293     H      0.236790000000     0.955490000000     0.132850000000     0.0390096  
H294     H      0.288910000000     0.971280000000     0.111540000000     0.0370248  
H295     H      0.203730000000     0.534070000000     0.166980000000     0.0480549  
H296     H      0.217610000000     0.583040000000     0.129030000000     0.0617938  
H297     H      0.257860000000     0.547610000000     0.148080000000     0.0199445  
H298     H      0.265950000000     0.951990000000     0.164590000000     0.040218   
H299     H      0.294450000000     0.499350000000     0.144330000000     0.0351226  
H300     H      0.243070000000     0.575460000000     0.095080000000     0.0715787  
H301     H      0.963420000000     0.690500000000     0.323280000000     0.0712343  
H302     H      0.002980000000     0.698790000000     0.369830000000     0.0458727  
H303     H      0.035320000000     0.753000000000     0.365640000000     0.0422577  
H304     H      0.002620000000     0.798320000000     0.345520000000     0.0370373  
H305     H      0.473330000000     0.696230000000     0.401130000000     0.0468086  
H306     H      0.435090000000     0.682740000000     0.354950000000     0.0623561  
H307     H      0.441770000000     0.738500000000     0.375960000000     0.0188703  
H308     H      0.029370000000     0.782630000000     0.396480000000     0.0380758  
H309     H      0.474290000000     0.791190000000     0.377290000000     0.0387689  
H310     H      0.426070000000     0.712150000000     0.324750000000     0.0793025  
H311     H      0.074430000000     0.744160000000     0.082080000000     0.0694582  
H312     H      0.056350000000     0.770860000000     0.136400000000     0.0450303  
H313     H      0.005340000000     0.806670000000     0.131610000000     0.0383838  
H314     H      0.471860000000     0.786620000000     0.088950000000     0.0381605  
H315     H      0.052790000000     0.733690000000     0.158500000000     0.0461549  
H316     H      0.079300000000     0.711400000000     0.110200000000     0.0609565  
H317     H      0.518530000000     0.710570000000     0.116840000000     0.0218822  
H318     H      0.469470000000     0.792130000000     0.149680000000     0.0401572  
H319     H      0.464930000000     0.749760000000     0.110070000000     0.0368756  
H320     H      0.557860000000     0.704890000000     0.073770000000     0.0785568  
H321     H      0.072980000000     0.955460000000     0.208810000000     0.0780083  
H322     H      0.125030000000     0.984450000000     0.217050000000     0.0443078  
H323     H      0.122350000000     0.539680000000     0.253020000000     0.0401994  
H324     H      0.083770000000     0.534270000000     0.296950000000     0.0383592  
H325     H      0.143490000000     0.950740000000     0.236250000000     0.0490358  
H326     H      0.092370000000     0.920490000000     0.224940000000     0.0613123  
H327     H      0.102330000000     0.947680000000     0.276650000000     0.0177157  
H328     H      0.142330000000     0.537900000000     0.291540000000     0.0411447  
H329     H      0.103650000000     0.498920000000     0.312000000000     0.0397987  
H330     H      0.055890000000     0.933520000000     0.242630000000     0.0747124  
H331     H      0.401140000000     0.501960000000     0.189390000000     0.0748046  
H332     H      0.350020000000     0.481500000000     0.210630000000     0.0401589  
H333     H      0.359470000000     0.952630000000     0.267430000000     0.036096   
H334     H      0.393600000000     0.983280000000     0.304730000000     0.0392438  
H335     H      0.328230000000     0.518410000000     0.211330000000     0.0431077  
H336     H      0.376900000000     0.536500000000     0.180890000000     0.0584854  
H337     H      0.369180000000     0.546010000000     0.239850000000     0.0178217  
H338     H      0.336920000000     0.968500000000     0.301050000000     0.0356642  
H339     H      0.368890000000     0.018290000000     0.300260000000     0.0408321  
H340     H      0.413570000000     0.541960000000     0.201130000000     0.0731744  
H341     H      0.932140000000     0.924120000000     0.225940000000     0.0782829  
H342     H      0.975020000000     0.881800000000     0.218050000000     0.0468885  
H343     H      0.030110000000     0.881660000000     0.251300000000     0.0363034  
H344     H      0.021320000000     0.907920000000     0.303670000000     0.0338683  
H345     H      0.446190000000     0.852040000000     0.229030000000     0.0482522  
H346     H      0.403940000000     0.896140000000     0.242140000000     0.0625303  
H347     H      0.440190000000     0.876650000000     0.282630000000     0.0200791  
H348     H      0.033650000000     0.852190000000     0.282930000000     0.0396746  
H349     H      0.491950000000     0.878260000000     0.314590000000     0.0375514  
H350     H      0.415960000000     0.929960000000     0.266120000000     0.0716419  
H351     H      0.438840000000     0.585490000000     0.218860000000     0.0676274  
H352     H      0.449700000000     0.638870000000     0.247440000000     0.0457824  
H353     H      0.995840000000     0.641780000000     0.295630000000     0.0343512  
H354     H      0.030920000000     0.597560000000     0.285240000000     0.0382526  
H355     H      0.460860000000     0.658200000000     0.210160000000     0.0458693  
H356     H      0.444600000000     0.609390000000     0.183070000000     0.0590999  
H357     H      0.502160000000     0.617620000000     0.200150000000     0.0198057  
H358     H      0.032750000000     0.658750000000     0.282880000000     0.0405988  
H359     H      0.043730000000     0.614520000000     0.247690000000     0.0359792  
H360     H      0.466080000000     0.572930000000     0.186940000000     0.0764328  
H361     H      0.339210000000     0.715470000000     0.558360000000     0.071222   
H362     H      0.384640000000     0.709850000000     0.013090000000     0.0441475  
H363     H      0.387260000000     0.746080000000     0.956510000000     0.0381317  
H364     H      0.350800000000     0.789530000000     0.965550000000     0.0408579  
H365     H      0.411920000000     0.722970000000     0.544080000000     0.0424469  
H366     H      0.370580000000     0.727990000000     0.584730000000     0.0588721  
H367     H      0.382020000000     0.774500000000     0.548750000000     0.0196086  
H368     H      0.410730000000     0.781780000000     0.959480000000     0.0396126  
H369     H      0.374600000000     0.805650000000     0.497360000000     0.0362809  
H370     H      0.337220000000     0.753680000000     0.579630000000     0.0772929  
H371     H      0.090620000000     0.802030000000     0.958200000000     0.077606   
H372     H      0.140830000000     0.793730000000     0.990520000000     0.0427986  
H373     H      0.137150000000     0.751020000000     0.541880000000     0.0371907  
H374     H      0.101340000000     0.706600000000     0.528160000000     0.0327105  
H375     H      0.162690000000     0.779620000000     0.956240000000     0.0484266  
H376     H      0.112810000000     0.790440000000     0.922970000000     0.0610202  
H377     H      0.124590000000     0.737580000000     0.945930000000     0.0184911  
H378     H      0.159610000000     0.714600000000     0.536460000000     0.0385353  
H379     H      0.124380000000     0.697140000000     0.492670000000     0.0384212  
H380     H      0.076710000000     0.769770000000     0.932160000000     0.074669   
H381     H      0.219620000000     0.835650000000     0.574440000000     0.0774938  
H382     H      0.243870000000     0.891380000000     0.568310000000     0.0423946  
H383     H      0.296730000000     0.888360000000     0.532220000000     0.0395971  
H384     H      0.291120000000     0.853120000000     0.984840000000     0.0377016  
H385     H      0.210170000000     0.910450000000     0.550310000000     0.0479593  
H386     H      0.183870000000     0.857290000000     0.564740000000     0.0609149  
H387     H      0.205130000000     0.869510000000     0.009830000000     0.0176635  
H388     H      0.296460000000     0.910910000000     0.995000000000     0.042491   
H389     H      0.256220000000     0.874700000000     0.971980000000     0.0407574  
H390     H      0.193310000000     0.821780000000     0.042490000000     0.0752454  
H391     H      0.306940000000     0.672950000000     0.547420000000     0.0736946  
H392     H      0.262030000000     0.633660000000     0.551510000000     0.0451636  
H393     H      0.209700000000     0.633450000000     0.514940000000     0.0394099  
H394     H      0.222340000000     0.660250000000     0.963830000000     0.0362545  
H395     H      0.291160000000     0.603210000000     0.543680000000     0.0460027  
H396     H      0.335720000000     0.645150000000     0.532080000000     0.0605467  
H397     H      0.301340000000     0.626780000000     0.989790000000     0.0188556  
H398     H      0.208230000000     0.603920000000     0.983050000000     0.0388884  
H399     H      0.251730000000     0.630210000000     0.954240000000     0.0344239  
H400     H      0.325700000000     0.679870000000     0.508410000000     0.070525   
H401     H      0.297740000000     0.044860000000     0.926280000000     0.0786757  
H402     H      0.290080000000     0.007530000000     0.878230000000     0.0448113  
H403     H      0.253920000000     0.953990000000     0.884790000000     0.0404569  
H404     H      0.211640000000     0.964070000000     0.924090000000     0.0382262  
H405     H      0.273380000000     0.539650000000     0.854960000000     0.0490241  
H406     H      0.281010000000     0.576940000000     0.902770000000     0.0617405  
H407     H      0.231510000000     0.547520000000     0.894730000000     0.0190786  
H408     H      0.216180000000     0.954750000000     0.864310000000     0.041617   
H409     H      0.196600000000     0.497030000000     0.900290000000     0.0395628  
H410     H      0.263810000000     0.567510000000     0.941130000000     0.0747766  
H411     H      0.204510000000     0.056220000000     0.597950000000     0.0791872  
H412     H      0.199480000000     0.006450000000     0.633880000000     0.0477415  
H413     H      0.236790000000     0.955490000000     0.632850000000     0.0390098  
H414     H      0.288910000000     0.971280000000     0.611540000000     0.0370254  
H415     H      0.203730000000     0.534070000000     0.666980000000     0.048055   
H416     H      0.217610000000     0.583040000000     0.629030000000     0.0617937  
H417     H      0.257860000000     0.547610000000     0.648080000000     0.0199448  
H418     H      0.265950000000     0.951990000000     0.664590000000     0.0402187  
H419     H      0.294450000000     0.499350000000     0.644330000000     0.0351234  
H420     H      0.243070000000     0.575460000000     0.595080000000     0.0715768  
H421     H      0.963420000000     0.690500000000     0.823280000000     0.0712363  
H422     H      0.002980000000     0.698790000000     0.869830000000     0.045873   
H423     H      0.035320000000     0.753000000000     0.865640000000     0.0422574  
H424     H      0.002620000000     0.798320000000     0.845530000000     0.0370385  
H425     H      0.473330000000     0.696230000000     0.901130000000     0.0468088  
H426     H      0.435090000000     0.682740000000     0.854950000000     0.0623568  
H427     H      0.441770000000     0.738500000000     0.875960000000     0.0188705  
H428     H      0.029370000000     0.782630000000     0.896480000000     0.0380744  
H429     H      0.474290000000     0.791190000000     0.877290000000     0.0387714  
H430     H      0.426070000000     0.712150000000     0.824750000000     0.0793032  
H431     H      0.074430000000     0.744160000000     0.582080000000     0.0694589  
H432     H      0.056350000000     0.770860000000     0.636400000000     0.0450339  
H433     H      0.005340000000     0.806670000000     0.631610000000     0.0383865  
H434     H      0.471860000000     0.786620000000     0.588950000000     0.0381606  
H435     H      0.052790000000     0.733690000000     0.658500000000     0.0461618  
H436     H      0.079300000000     0.711400000000     0.610200000000     0.0609573  
H437     H      0.518530000000     0.710570000000     0.616840000000     0.0218822  
H438     H      0.469470000000     0.792130000000     0.649680000000     0.0401641  
H439     H      0.464930000000     0.749760000000     0.610070000000     0.0368763  
H440     H      0.557860000000     0.704890000000     0.573770000000     0.0785571  
H441     H      0.072980000000     0.955460000000     0.708810000000     0.0780204  
H442     H      0.125030000000     0.984450000000     0.717050000000     0.044311   
H443     H      0.122350000000     0.539680000000     0.753010000000     0.0401957  
H444     H      0.083770000000     0.534270000000     0.796950000000     0.0383604  
H445     H      0.143490000000     0.950740000000     0.736250000000     0.0490397  
H446     H      0.092370000000     0.920490000000     0.724940000000     0.06132    
H447     H      0.102330000000     0.947680000000     0.776650000000     0.0177252  
H448     H      0.142330000000     0.537900000000     0.791530000000     0.041154   
H449     H      0.103650000000     0.498920000000     0.812000000000     0.0397995  
H450     H      0.055890000000     0.933520000000     0.742630000000     0.0747231  
H451     H      0.401140000000     0.501960000000     0.689390000000     0.0748097  
H452     H      0.350020000000     0.481500000000     0.710630000000     0.0401491  
H453     H      0.359470000000     0.952630000000     0.767430000000     0.0361116  
H454     H      0.393600000000     0.983280000000     0.804730000000     0.0392415  
H455     H      0.328230000000     0.518410000000     0.711330000000     0.0430957  
H456     H      0.376900000000     0.536500000000     0.680890000000     0.0584853  
H457     H      0.369180000000     0.546010000000     0.739850000000     0.0178254  
H458     H      0.336920000000     0.968500000000     0.801050000000     0.0356744  
H459     H      0.368890000000     0.018290000000     0.800260000000     0.0408266  
H460     H      0.413570000000     0.541960000000     0.701130000000     0.073178   
H461     H      0.932140000000     0.924120000000     0.725940000000     0.078289   
H462     H      0.975020000000     0.881800000000     0.718050000000     0.0468922  
H463     H      0.030110000000     0.881660000000     0.751300000000     0.0363046  
H464     H      0.021320000000     0.907920000000     0.803670000000     0.0338691  
H465     H      0.446190000000     0.852040000000     0.729030000000     0.0482534  
H466     H      0.403940000000     0.896140000000     0.742140000000     0.0625316  
H467     H      0.440190000000     0.876650000000     0.782630000000     0.0200791  
H468     H      0.033650000000     0.852190000000     0.782930000000     0.0396752  
H469     H      0.491950000000     0.878260000000     0.814590000000     0.0375521  
H470     H      0.415960000000     0.929960000000     0.766120000000     0.0716433  
H471     H      0.438840000000     0.585490000000     0.718860000000     0.0676308  
H472     H      0.449700000000     0.638870000000     0.747440000000     0.0457948  
H473     H      0.995840000000     0.641780000000     0.795630000000     0.0343432  
H474     H      0.030920000000     0.597560000000     0.785240000000     0.0382584  
H475     H      0.460860000000     0.658200000000     0.710160000000     0.0458758  
H476     H      0.444600000000     0.609390000000     0.683070000000     0.0591028  
H477     H      0.502160000000     0.617620000000     0.700150000000     0.0198024  
H478     H      0.032750000000     0.658750000000     0.782880000000     0.040587   
H479     H      0.043730000000     0.614520000000     0.747690000000     0.0359835  
H480     H      0.466080000000     0.572930000000     0.686940000000     0.0764416  
H481     H      0.839210000000     0.215470000000     0.058360000000     0.0712209  
H482     H      0.884640000000     0.209850000000     0.513090000000     0.044101   
H483     H      0.887260000000     0.246080000000     0.456510000000     0.0380865  
H484     H      0.850800000000     0.289530000000     0.465550000000     0.0408395  
H485     H      0.911920000000     0.222970000000     0.044080000000     0.042341   
H486     H      0.870580000000     0.227990000000     0.084730000000     0.0588297  
H487     H      0.882020000000     0.274500000000     0.048750000000     0.0195643  
H488     H      0.910730000000     0.281780000000     0.459480000000     0.0395106  
H489     H      0.874600000000     0.305650000000     0.997360000000     0.036229   
H490     H      0.837220000000     0.253680000000     0.079630000000     0.0772801  
H491     H      0.590620000000     0.302030000000     0.458200000000     0.0775414  
H492     H      0.640830000000     0.293730000000     0.490520000000     0.0427772  
H493     H      0.637150000000     0.251020000000     0.041880000000     0.0372068  
H494     H      0.601340000000     0.206600000000     0.028160000000     0.0326606  
H495     H      0.662690000000     0.279620000000     0.456240000000     0.0484268  
H496     H      0.612810000000     0.290440000000     0.422970000000     0.0609877  
H497     H      0.624590000000     0.237580000000     0.445930000000     0.0184909  
H498     H      0.659610000000     0.214600000000     0.036460000000     0.0385611  
H499     H      0.624380000000     0.197140000000     0.992670000000     0.0383777  
H500     H      0.576710000000     0.269770000000     0.432160000000     0.0746479  
H501     H      0.719620000000     0.335650000000     0.074440000000     0.0774837  
H502     H      0.743870000000     0.391380000000     0.068310000000     0.0423818  
H503     H      0.796730000000     0.388360000000     0.032220000000     0.0395721  
H504     H      0.791120000000     0.353120000000     0.484840000000     0.0376892  
H505     H      0.710170000000     0.410460000000     0.050310000000     0.0479321  
H506     H      0.683870000000     0.357290000000     0.064740000000     0.0608862  
H507     H      0.705130000000     0.369510000000     0.509830000000     0.0176518  
H508     H      0.796460000000     0.410910000000     0.495000000000     0.0424615  
H509     H      0.756220000000     0.374700000000     0.471980000000     0.0407547  
H510     H      0.693310000000     0.321780000000     0.542490000000     0.0752327  
H511     H      0.806940000000     0.172950000000     0.047420000000     0.0736924  
H512     H      0.762030000000     0.133660000000     0.051510000000     0.0451591  
H513     H      0.709700000000     0.133450000000     0.014940000000     0.0394133  
H514     H      0.722340000000     0.160250000000     0.463830000000     0.0362536  
H515     H      0.791160000000     0.103210000000     0.043680000000     0.0459911  
H516     H      0.835720000000     0.145150000000     0.032080000000     0.0605071  
H517     H      0.801340000000     0.126780000000     0.489790000000     0.018829   
H518     H      0.708230000000     0.103920000000     0.483040000000     0.0388469  
H519     H      0.751730000000     0.130210000000     0.454240000000     0.0344264  
H520     H      0.825700000000     0.179870000000     0.008410000000     0.0705174  
H521     H      0.797740000000     0.544870000000     0.426280000000     0.0786683  
H522     H      0.790080000000     0.507530000000     0.378230000000     0.0447845  
H523     H      0.753920000000     0.453990000000     0.384790000000     0.0404613  
H524     H      0.711640000000     0.464070000000     0.424090000000     0.0382066  
H525     H      0.773390000000     0.039650000000     0.354960000000     0.0489997  
H526     H      0.781010000000     0.076940000000     0.402770000000     0.0617207  
H527     H      0.731510000000     0.047520000000     0.394730000000     0.019085   
H528     H      0.716180000000     0.454750000000     0.364310000000     0.0416118  
H529     H      0.696600000000     0.997030000000     0.400290000000     0.0395233  
H530     H      0.763810000000     0.067510000000     0.441130000000     0.0747595  
H531     H      0.704510000000     0.556230000000     0.097950000000     0.0791869  
H532     H      0.699480000000     0.506450000000     0.133880000000     0.0477064  
H533     H      0.736790000000     0.455490000000     0.132850000000     0.0390074  
H534     H      0.788910000000     0.471280000000     0.111540000000     0.0370131  
H535     H      0.703730000000     0.034070000000     0.166980000000     0.0480403  
H536     H      0.717610000000     0.083050000000     0.129030000000     0.061727   
H537     H      0.757860000000     0.047610000000     0.148080000000     0.0199627  
H538     H      0.765950000000     0.451990000000     0.164590000000     0.0402131  
H539     H      0.794450000000     0.999350000000     0.144330000000     0.0351027  
H540     H      0.743070000000     0.075460000000     0.095080000000     0.0715463  
H541     H      0.463420000000     0.190500000000     0.323280000000     0.0713601  
H542     H      0.502980000000     0.198790000000     0.369830000000     0.0447035  
H543     H      0.535320000000     0.253000000000     0.365640000000     0.0424577  
H544     H      0.502620000000     0.298320000000     0.345520000000     0.0357285  
H545     H      0.973330000000     0.196230000000     0.401130000000     0.0469201  
H546     H      0.935090000000     0.182740000000     0.354950000000     0.0623131  
H547     H      0.941770000000     0.238500000000     0.375960000000     0.018755   
H548     H      0.529370000000     0.282630000000     0.396480000000     0.038279   
H549     H      0.974290000000     0.291190000000     0.377290000000     0.0389786  
H550     H      0.926070000000     0.212150000000     0.324750000000     0.0793279  
H551     H      0.574430000000     0.244160000000     0.082080000000     0.0694121  
H552     H      0.556350000000     0.270860000000     0.136400000000     0.0449797  
H553     H      0.505340000000     0.306670000000     0.131610000000     0.0372602  
H554     H      0.971860000000     0.286620000000     0.088950000000     0.0379108  
H555     H      0.552790000000     0.233690000000     0.158500000000     0.046122   
H556     H      0.579300000000     0.211400000000     0.110200000000     0.0609376  
H557     H      0.018530000000     0.210570000000     0.116840000000     0.0221422  
H558     H      0.969470000000     0.292130000000     0.149680000000     0.0403954  
H559     H      0.964930000000     0.249760000000     0.110070000000     0.0367159  
H560     H      0.057860000000     0.204890000000     0.073770000000     0.078665   
H561     H      0.572980000000     0.455460000000     0.208810000000     0.0778459  
H562     H      0.625030000000     0.484450000000     0.217050000000     0.04427    
H563     H      0.622350000000     0.039680000000     0.253020000000     0.0401614  
H564     H      0.583770000000     0.034270000000     0.296950000000     0.0382412  
H565     H      0.643490000000     0.450740000000     0.236250000000     0.0490203  
H566     H      0.592380000000     0.420490000000     0.224940000000     0.0612043  
H567     H      0.602330000000     0.447690000000     0.276650000000     0.0176956  
H568     H      0.642330000000     0.037900000000     0.291540000000     0.0411284  
H569     H      0.603650000000     0.998920000000     0.312000000000     0.0396783  
H570     H      0.555890000000     0.433520000000     0.242630000000     0.0745236  
H571     H      0.901140000000     0.001960000000     0.189390000000     0.0747905  
H572     H      0.850020000000     0.981500000000     0.210630000000     0.0400995  
H573     H      0.859470000000     0.452630000000     0.267430000000     0.0361006  
H574     H      0.893600000000     0.483280000000     0.304730000000     0.0392057  
H575     H      0.828230000000     0.018410000000     0.211330000000     0.043097   
H576     H      0.876900000000     0.036500000000     0.180890000000     0.058479   
H577     H      0.869180000000     0.046010000000     0.239850000000     0.017822   
H578     H      0.836920000000     0.468500000000     0.301050000000     0.035669   
H579     H      0.868890000000     0.518290000000     0.300260000000     0.0407631  
H580     H      0.913570000000     0.041950000000     0.201130000000     0.0731942  
H581     H      0.432140000000     0.424130000000     0.225940000000     0.0782925  
H582     H      0.475020000000     0.381800000000     0.218050000000     0.0470936  
H583     H      0.530110000000     0.381660000000     0.251300000000     0.0361178  
H584     H      0.521320000000     0.407920000000     0.303670000000     0.0340256  
H585     H      0.946200000000     0.352040000000     0.229030000000     0.048266   
H586     H      0.903940000000     0.396140000000     0.242140000000     0.0625057  
H587     H      0.940190000000     0.376650000000     0.282630000000     0.0200113  
H588     H      0.533650000000     0.352190000000     0.282930000000     0.0395547  
H589     H      0.991950000000     0.378260000000     0.314590000000     0.0364137  
H590     H      0.915960000000     0.429960000000     0.266120000000     0.0716282  
H591     H      0.938840000000     0.085490000000     0.218860000000     0.0675385  
H592     H      0.949700000000     0.138870000000     0.247440000000     0.0457066  
H593     H      0.495840000000     0.141780000000     0.295630000000     0.0354196  
H594     H      0.530920000000     0.097560000000     0.285240000000     0.0379813  
H595     H      0.960860000000     0.158200000000     0.210160000000     0.045676   
H596     H      0.944600000000     0.109390000000     0.183070000000     0.0588742  
H597     H      0.002160000000     0.117620000000     0.200150000000     0.0209098  
H598     H      0.532750000000     0.158750000000     0.282880000000     0.0408401  
H599     H      0.543730000000     0.114520000000     0.247690000000     0.0358767  
H600     H      0.966080000000     0.072930000000     0.186940000000     0.0761616  
H601     H      0.839210000000     0.215470000000     0.558360000000     0.0712211  
H602     H      0.884640000000     0.209850000000     0.013090000000     0.0441012  
H603     H      0.887260000000     0.246080000000     0.956510000000     0.0380867  
H604     H      0.850800000000     0.289530000000     0.965550000000     0.0408394  
H605     H      0.911920000000     0.222970000000     0.544080000000     0.0423413  
H606     H      0.870580000000     0.227990000000     0.584730000000     0.0588302  
H607     H      0.882020000000     0.274500000000     0.548750000000     0.0195648  
H608     H      0.910730000000     0.281780000000     0.959480000000     0.0395107  
H609     H      0.874600000000     0.305650000000     0.497360000000     0.0362285  
H610     H      0.837220000000     0.253680000000     0.579630000000     0.0772805  
H611     H      0.590620000000     0.302030000000     0.958200000000     0.077542   
H612     H      0.640830000000     0.293730000000     0.990520000000     0.0427793  
H613     H      0.637150000000     0.251020000000     0.541880000000     0.0371723  
H614     H      0.601340000000     0.206600000000     0.528160000000     0.0326698  
H615     H      0.662690000000     0.279620000000     0.956240000000     0.0484276  
H616     H      0.612810000000     0.290440000000     0.922970000000     0.0609882  
H617     H      0.624590000000     0.237580000000     0.945930000000     0.0184906  
H618     H      0.659610000000     0.214600000000     0.536460000000     0.0385268  
H619     H      0.624380000000     0.197140000000     0.492670000000     0.0383852  
H620     H      0.576710000000     0.269770000000     0.932160000000     0.0746482  
H621     H      0.719620000000     0.335650000000     0.574440000000     0.0774841  
H622     H      0.743870000000     0.391380000000     0.568310000000     0.0423821  
H623     H      0.796730000000     0.388360000000     0.532220000000     0.0395721  
H624     H      0.791120000000     0.353120000000     0.984840000000     0.0376891  
H625     H      0.710170000000     0.410460000000     0.550310000000     0.0479322  
H626     H      0.683870000000     0.357290000000     0.564740000000     0.0608866  
H627     H      0.705130000000     0.369510000000     0.009830000000     0.0176521  
H628     H      0.796460000000     0.410910000000     0.995000000000     0.042463   
H629     H      0.756220000000     0.374700000000     0.971980000000     0.0407545  
H630     H      0.693310000000     0.321780000000     0.042490000000     0.0752326  
H631     H      0.806940000000     0.172950000000     0.547420000000     0.0736911  
H632     H      0.762030000000     0.133660000000     0.551510000000     0.0451599  
H633     H      0.709700000000     0.133450000000     0.514940000000     0.0393971  
H634     H      0.722340000000     0.160250000000     0.963830000000     0.0362504  
H635     H      0.791160000000     0.103210000000     0.543680000000     0.0459942  
H636     H      0.835720000000     0.145150000000     0.532080000000     0.0605056  
H637     H      0.801340000000     0.126780000000     0.989790000000     0.0188439  
H638     H      0.708230000000     0.103920000000     0.983050000000     0.0388686  
H639     H      0.751730000000     0.130210000000     0.954240000000     0.0344211  
H640     H      0.825700000000     0.179870000000     0.508410000000     0.0705134  
H641     H      0.797740000000     0.544870000000     0.926280000000     0.0786681  
H642     H      0.790080000000     0.507530000000     0.878230000000     0.0447843  
H643     H      0.753920000000     0.453990000000     0.884790000000     0.0404613  
H644     H      0.711640000000     0.464070000000     0.924090000000     0.0382069  
H645     H      0.773390000000     0.039650000000     0.854960000000     0.0489994  
H646     H      0.781010000000     0.076940000000     0.902770000000     0.0617206  
H647     H      0.731510000000     0.047520000000     0.894730000000     0.0190852  
H648     H      0.716180000000     0.454750000000     0.864310000000     0.0416119  
H649     H      0.696600000000     0.997030000000     0.900290000000     0.0395236  
H650     H      0.763810000000     0.067510000000     0.941130000000     0.074758   
H651     H      0.704510000000     0.556230000000     0.597950000000     0.0791864  
H652     H      0.699480000000     0.506450000000     0.633880000000     0.0477067  
H653     H      0.736790000000     0.455490000000     0.632850000000     0.0390077  
H654     H      0.788910000000     0.471280000000     0.611540000000     0.0370137  
H655     H      0.703730000000     0.034070000000     0.666980000000     0.0480403  
H656     H      0.717610000000     0.083050000000     0.629030000000     0.0617268  
H657     H      0.757860000000     0.047610000000     0.648080000000     0.019963   
H658     H      0.765950000000     0.451990000000     0.664590000000     0.0402138  
H659     H      0.794450000000     0.999350000000     0.644330000000     0.0351036  
H660     H      0.743070000000     0.075460000000     0.595080000000     0.0715444  
H661     H      0.463420000000     0.190500000000     0.823280000000     0.0713621  
H662     H      0.502980000000     0.198790000000     0.869830000000     0.044704   
H663     H      0.535320000000     0.253000000000     0.865640000000     0.0424574  
H664     H      0.502620000000     0.298320000000     0.845530000000     0.0357292  
H665     H      0.973330000000     0.196230000000     0.901130000000     0.0469203  
H666     H      0.935090000000     0.182740000000     0.854950000000     0.0623138  
H667     H      0.941770000000     0.238500000000     0.875960000000     0.0187552  
H668     H      0.529370000000     0.282630000000     0.896480000000     0.0382777  
H669     H      0.974290000000     0.291190000000     0.877290000000     0.0389812  
H670     H      0.926070000000     0.212150000000     0.824750000000     0.0793286  
H671     H      0.574430000000     0.244160000000     0.582080000000     0.0694128  
H672     H      0.556350000000     0.270860000000     0.636400000000     0.0449833  
H673     H      0.505340000000     0.306670000000     0.631610000000     0.037263   
H674     H      0.971860000000     0.286620000000     0.588950000000     0.0379109  
H675     H      0.552790000000     0.233690000000     0.658500000000     0.0461289  
H676     H      0.579300000000     0.211400000000     0.610200000000     0.0609384  
H677     H      0.018530000000     0.210570000000     0.616840000000     0.0221421  
H678     H      0.969470000000     0.292130000000     0.649680000000     0.0404023  
H679     H      0.964930000000     0.249760000000     0.610070000000     0.0367166  
H680     H      0.057860000000     0.204890000000     0.573770000000     0.0786653  
H681     H      0.572980000000     0.455460000000     0.708810000000     0.0778579  
H682     H      0.625030000000     0.484450000000     0.717050000000     0.0442732  
H683     H      0.622350000000     0.039680000000     0.753010000000     0.0401577  
H684     H      0.583770000000     0.034270000000     0.796950000000     0.0382424  
H685     H      0.643490000000     0.450740000000     0.736250000000     0.0490242  
H686     H      0.592380000000     0.420490000000     0.724940000000     0.061212   
H687     H      0.602330000000     0.447690000000     0.776650000000     0.0177051  
H688     H      0.642330000000     0.037900000000     0.791530000000     0.0411377  
H689     H      0.603650000000     0.998920000000     0.812000000000     0.0396791  
H690     H      0.555890000000     0.433520000000     0.742630000000     0.0745344  
H691     H      0.901140000000     0.001960000000     0.689390000000     0.0747956  
H692     H      0.850020000000     0.981500000000     0.710630000000     0.0400897  
H693     H      0.859470000000     0.452630000000     0.767430000000     0.0361161  
H694     H      0.893600000000     0.483280000000     0.804730000000     0.0392033  
H695     H      0.828230000000     0.018410000000     0.711330000000     0.0430851  
H696     H      0.876900000000     0.036500000000     0.680890000000     0.0584789  
H697     H      0.869180000000     0.046010000000     0.739850000000     0.0178257  
H698     H      0.836920000000     0.468500000000     0.801050000000     0.0356793  
H699     H      0.868890000000     0.518290000000     0.800260000000     0.0407577  
H700     H      0.913570000000     0.041950000000     0.701130000000     0.0731978  
H701     H      0.432140000000     0.424130000000     0.725940000000     0.0782986  
H702     H      0.475020000000     0.381800000000     0.718050000000     0.0470973  
H703     H      0.530110000000     0.381660000000     0.751300000000     0.036119   
H704     H      0.521320000000     0.407920000000     0.803670000000     0.0340264  
H705     H      0.946200000000     0.352040000000     0.729030000000     0.0482672  
H706     H      0.903940000000     0.396140000000     0.742140000000     0.062507   
H707     H      0.940190000000     0.376650000000     0.782630000000     0.0200112  
H708     H      0.533650000000     0.352190000000     0.782930000000     0.0395553  
H709     H      0.991950000000     0.378260000000     0.814590000000     0.0364145  
H710     H      0.915960000000     0.429960000000     0.766120000000     0.0716296  
H711     H      0.938840000000     0.085490000000     0.718860000000     0.067542   
H712     H      0.949700000000     0.138870000000     0.747440000000     0.0457191  
H713     H      0.495840000000     0.141780000000     0.795630000000     0.0354115  
H714     H      0.530920000000     0.097560000000     0.785240000000     0.0379872  
H715     H      0.960860000000     0.158200000000     0.710160000000     0.0456825  
H716     H      0.944600000000     0.109390000000     0.683070000000     0.0588771  
H717     H      0.002160000000     0.117620000000     0.700150000000     0.0209063  
H718     H      0.532750000000     0.158750000000     0.782880000000     0.0408284  
H719     H      0.543730000000     0.114520000000     0.747690000000     0.0358811  
H720     H      0.966080000000     0.072930000000     0.686940000000     0.0761705  
H721     H      0.839210000000     0.715470000000     0.058360000000     0.07121    
H722     H      0.884640000000     0.709850000000     0.513090000000     0.044099   
H723     H      0.887260000000     0.746080000000     0.456510000000     0.0380857  
H724     H      0.850800000000     0.789530000000     0.465550000000     0.0408398  
H725     H      0.911920000000     0.722970000000     0.044080000000     0.0423406  
H726     H      0.870580000000     0.727990000000     0.084730000000     0.0588299  
H727     H      0.882020000000     0.774500000000     0.048750000000     0.0195665  
H728     H      0.910730000000     0.781780000000     0.459480000000     0.0395099  
H729     H      0.874600000000     0.805650000000     0.997360000000     0.0362298  
H730     H      0.837220000000     0.753680000000     0.079630000000     0.0772811  
H731     H      0.590620000000     0.802030000000     0.458200000000     0.0775438  
H732     H      0.640830000000     0.793730000000     0.490520000000     0.0427748  
H733     H      0.637150000000     0.751020000000     0.041880000000     0.0372157  
H734     H      0.601340000000     0.706600000000     0.028160000000     0.0326692  
H735     H      0.662690000000     0.779620000000     0.456240000000     0.0484179  
H736     H      0.612810000000     0.790440000000     0.422970000000     0.0609874  
H737     H      0.624590000000     0.737580000000     0.445930000000     0.0184797  
H738     H      0.659610000000     0.714600000000     0.036460000000     0.0385609  
H739     H      0.624380000000     0.697140000000     0.992670000000     0.0383799  
H740     H      0.576710000000     0.769770000000     0.432160000000     0.0746492  
H741     H      0.719620000000     0.835650000000     0.074440000000     0.0774884  
H742     H      0.743870000000     0.891380000000     0.068310000000     0.0423882  
H743     H      0.796730000000     0.888360000000     0.032220000000     0.0395756  
H744     H      0.791120000000     0.853120000000     0.484840000000     0.0376891  
H745     H      0.710170000000     0.910450000000     0.050310000000     0.0479381  
H746     H      0.683870000000     0.857290000000     0.064740000000     0.0608855  
H747     H      0.705130000000     0.869510000000     0.509830000000     0.0176477  
H748     H      0.796460000000     0.910910000000     0.495000000000     0.0424648  
H749     H      0.756220000000     0.874700000000     0.471980000000     0.0407515  
H750     H      0.693310000000     0.821780000000     0.542490000000     0.075235   
H751     H      0.806940000000     0.672950000000     0.047420000000     0.0736878  
H752     H      0.762030000000     0.633660000000     0.051510000000     0.0451594  
H753     H      0.709700000000     0.633450000000     0.014940000000     0.0394117  
H754     H      0.722340000000     0.660250000000     0.463830000000     0.0362514  
H755     H      0.791160000000     0.603210000000     0.043680000000     0.0459841  
H756     H      0.835720000000     0.645150000000     0.032080000000     0.0605041  
H757     H      0.801340000000     0.626780000000     0.489790000000     0.0188244  
H758     H      0.708230000000     0.603920000000     0.483040000000     0.0388451  
H759     H      0.751730000000     0.630210000000     0.454240000000     0.0344247  
H760     H      0.825700000000     0.679870000000     0.008410000000     0.0705112  
H761     H      0.797740000000     0.044860000000     0.426280000000     0.0786502  
H762     H      0.790080000000     0.007530000000     0.378230000000     0.0447902  
H763     H      0.753920000000     0.953990000000     0.384790000000     0.0404502  
H764     H      0.711640000000     0.964070000000     0.424090000000     0.0382047  
H765     H      0.773390000000     0.539650000000     0.354960000000     0.049004   
H766     H      0.781010000000     0.576940000000     0.402770000000     0.0617275  
H767     H      0.731510000000     0.547520000000     0.394730000000     0.0190725  
H768     H      0.716180000000     0.954750000000     0.364310000000     0.0416051  
H769     H      0.696600000000     0.497030000000     0.400290000000     0.0395319  
H770     H      0.763810000000     0.567510000000     0.441130000000     0.0747697  
H771     H      0.704510000000     0.056220000000     0.097950000000     0.0791606  
H772     H      0.699480000000     0.006450000000     0.133880000000     0.0477137  
H773     H      0.736790000000     0.955490000000     0.132850000000     0.0390009  
H774     H      0.788910000000     0.971280000000     0.111540000000     0.0370095  
H775     H      0.703730000000     0.534070000000     0.166980000000     0.048037   
H776     H      0.717610000000     0.583040000000     0.129030000000     0.0617783  
H777     H      0.757860000000     0.547610000000     0.148080000000     0.0199449  
H778     H      0.765950000000     0.951990000000     0.164590000000     0.0402142  
H779     H      0.794450000000     0.499350000000     0.144330000000     0.0351123  
H780     H      0.743070000000     0.575460000000     0.095080000000     0.0715715  
H781     H      0.463420000000     0.690500000000     0.323280000000     0.0713606  
H782     H      0.502980000000     0.698790000000     0.369830000000     0.0447026  
H783     H      0.535320000000     0.753000000000     0.365640000000     0.042448   
H784     H      0.502620000000     0.798320000000     0.345520000000     0.0357622  
H785     H      0.973330000000     0.696230000000     0.401130000000     0.0469183  
H786     H      0.935090000000     0.682740000000     0.354950000000     0.062312   
H787     H      0.941770000000     0.738500000000     0.375960000000     0.0187561  
H788     H      0.529370000000     0.782630000000     0.396480000000     0.0382677  
H789     H      0.974290000000     0.791190000000     0.377290000000     0.0390133  
H790     H      0.926070000000     0.712150000000     0.324750000000     0.0793277  
H791     H      0.574430000000     0.744160000000     0.082080000000     0.069442   
H792     H      0.556350000000     0.770860000000     0.136400000000     0.0449803  
H793     H      0.505340000000     0.806670000000     0.131610000000     0.0372589  
H794     H      0.971860000000     0.786620000000     0.088950000000     0.0379103  
H795     H      0.552790000000     0.733690000000     0.158500000000     0.0461232  
H796     H      0.579300000000     0.711400000000     0.110200000000     0.060907   
H797     H      0.018530000000     0.710570000000     0.116840000000     0.0221379  
H798     H      0.969470000000     0.792130000000     0.149680000000     0.0403947  
H799     H      0.964930000000     0.749760000000     0.110070000000     0.0367159  
H800     H      0.057860000000     0.704890000000     0.073770000000     0.0786217  
H801     H      0.572980000000     0.955460000000     0.208810000000     0.0778414  
H802     H      0.625030000000     0.984450000000     0.217050000000     0.0442595  
H803     H      0.622350000000     0.539680000000     0.253020000000     0.0401539  
H804     H      0.583770000000     0.534270000000     0.296950000000     0.0382514  
H805     H      0.643490000000     0.950740000000     0.236250000000     0.0490165  
H806     H      0.592380000000     0.920490000000     0.224940000000     0.0612017  
H807     H      0.602330000000     0.947680000000     0.276650000000     0.0176906  
H808     H      0.642330000000     0.537900000000     0.291540000000     0.0411219  
H809     H      0.603650000000     0.498920000000     0.312000000000     0.0397293  
H810     H      0.555890000000     0.933520000000     0.242630000000     0.0745225  
H811     H      0.901140000000     0.501960000000     0.189390000000     0.0747558  
H812     H      0.850020000000     0.481500000000     0.210630000000     0.0401479  
H813     H      0.859470000000     0.952630000000     0.267430000000     0.0360906  
H814     H      0.893600000000     0.983280000000     0.304730000000     0.0392125  
H815     H      0.828230000000     0.518410000000     0.211330000000     0.043104   
H816     H      0.876900000000     0.536500000000     0.180890000000     0.0584528  
H817     H      0.869180000000     0.546010000000     0.239850000000     0.0178232  
H818     H      0.836920000000     0.968500000000     0.301050000000     0.035654   
H819     H      0.868890000000     0.018290000000     0.300260000000     0.0408124  
H820     H      0.913570000000     0.541960000000     0.201130000000     0.0731504  
H821     H      0.432140000000     0.924120000000     0.225940000000     0.0783221  
H822     H      0.475020000000     0.881800000000     0.218050000000     0.0470919  
H823     H      0.530110000000     0.881660000000     0.251300000000     0.0361269  
H824     H      0.521320000000     0.907920000000     0.303670000000     0.0340213  
H825     H      0.946200000000     0.852040000000     0.229030000000     0.0482655  
H826     H      0.903940000000     0.896140000000     0.242140000000     0.0625147  
H827     H      0.940190000000     0.876650000000     0.282630000000     0.0200071  
H828     H      0.533650000000     0.852190000000     0.282930000000     0.0395613  
H829     H      0.991950000000     0.878260000000     0.314590000000     0.0364088  
H830     H      0.915960000000     0.929960000000     0.266120000000     0.0716423  
H831     H      0.938840000000     0.585490000000     0.218860000000     0.067543   
H832     H      0.949700000000     0.638870000000     0.247440000000     0.0457074  
H833     H      0.495840000000     0.641780000000     0.295630000000     0.0354201  
H834     H      0.530920000000     0.597560000000     0.285240000000     0.0379781  
H835     H      0.960860000000     0.658200000000     0.210160000000     0.0456768  
H836     H      0.944600000000     0.609390000000     0.183070000000     0.0588726  
H837     H      0.002160000000     0.617620000000     0.200150000000     0.0209076  
H838     H      0.532750000000     0.658750000000     0.282880000000     0.0408393  
H839     H      0.543730000000     0.614520000000     0.247690000000     0.035874   
H840     H      0.966080000000     0.572930000000     0.186940000000     0.0761607  
H841     H      0.839210000000     0.715470000000     0.558360000000     0.0712102  
H842     H      0.884640000000     0.709850000000     0.013090000000     0.0440992  
H843     H      0.887260000000     0.746080000000     0.956510000000     0.0380859  
H844     H      0.850800000000     0.789530000000     0.965550000000     0.0408397  
H845     H      0.911920000000     0.722970000000     0.544080000000     0.0423409  
H846     H      0.870580000000     0.727990000000     0.584730000000     0.0588304  
H847     H      0.882020000000     0.774500000000     0.548750000000     0.019567   
H848     H      0.910730000000     0.781780000000     0.959480000000     0.03951    
H849     H      0.874600000000     0.805650000000     0.497360000000     0.0362292  
H850     H      0.837220000000     0.753680000000     0.579630000000     0.0772815  
H851     H      0.590620000000     0.802030000000     0.958200000000     0.0775444  
H852     H      0.640830000000     0.793730000000     0.990520000000     0.0427769  
H853     H      0.637150000000     0.751020000000     0.541880000000     0.0371812  
H854     H      0.601340000000     0.706600000000     0.528160000000     0.0326784  
H855     H      0.662690000000     0.779620000000     0.956240000000     0.0484188  
H856     H      0.612810000000     0.790440000000     0.922970000000     0.0609878  
H857     H      0.624590000000     0.737580000000     0.945930000000     0.0184794  
H858     H      0.659610000000     0.714600000000     0.536460000000     0.0385265  
H859     H      0.624380000000     0.697140000000     0.492670000000     0.0383874  
H860     H      0.576710000000     0.769770000000     0.932160000000     0.0746495  
H861     H      0.719620000000     0.835650000000     0.574440000000     0.0774887  
H862     H      0.743870000000     0.891380000000     0.568310000000     0.0423885  
H863     H      0.796730000000     0.888360000000     0.532220000000     0.0395755  
H864     H      0.791120000000     0.853120000000     0.984840000000     0.037689   
H865     H      0.710170000000     0.910450000000     0.550310000000     0.0479382  
H866     H      0.683870000000     0.857290000000     0.564740000000     0.0608859  
H867     H      0.705130000000     0.869510000000     0.009830000000     0.017648   
H868     H      0.796460000000     0.910910000000     0.995000000000     0.0424663  
H869     H      0.756220000000     0.874700000000     0.971980000000     0.0407513  
H870     H      0.693310000000     0.821780000000     0.042490000000     0.0752349  
H871     H      0.806940000000     0.672950000000     0.547420000000     0.0736866  
H872     H      0.762030000000     0.633660000000     0.551510000000     0.0451602  
H873     H      0.709700000000     0.633450000000     0.514940000000     0.0393954  
H874     H      0.722340000000     0.660250000000     0.963830000000     0.0362482  
H875     H      0.791160000000     0.603210000000     0.543680000000     0.0459871  
H876     H      0.835720000000     0.645150000000     0.532080000000     0.0605025  
H877     H      0.801340000000     0.626780000000     0.989790000000     0.0188393  
H878     H      0.708230000000     0.603920000000     0.983050000000     0.0388668  
H879     H      0.751730000000     0.630210000000     0.954240000000     0.0344193  
H880     H      0.825700000000     0.679870000000     0.508410000000     0.0705072  
H881     H      0.797740000000     0.044860000000     0.926280000000     0.07865    
H882     H      0.790080000000     0.007530000000     0.878230000000     0.04479    
H883     H      0.753920000000     0.953990000000     0.884790000000     0.0404502  
H884     H      0.711640000000     0.964070000000     0.924090000000     0.0382049  
H885     H      0.773390000000     0.539650000000     0.854960000000     0.0490038  
H886     H      0.781010000000     0.576940000000     0.902770000000     0.0617274  
H887     H      0.731510000000     0.547520000000     0.894730000000     0.0190727  
H888     H      0.716180000000     0.954750000000     0.864310000000     0.0416053  
H889     H      0.696600000000     0.497030000000     0.900290000000     0.0395322  
H890     H      0.763810000000     0.567510000000     0.941130000000     0.0747682  
H891     H      0.704510000000     0.056220000000     0.597950000000     0.0791601  
H892     H      0.699480000000     0.006450000000     0.633880000000     0.047714   
H893     H      0.736790000000     0.955490000000     0.632850000000     0.0390012  
H894     H      0.788910000000     0.971280000000     0.611540000000     0.0370101  
H895     H      0.703730000000     0.534070000000     0.666980000000     0.0480371  
H896     H      0.717610000000     0.583040000000     0.629030000000     0.0617781  
H897     H      0.757860000000     0.547610000000     0.648080000000     0.0199452  
H898     H      0.765950000000     0.951990000000     0.664590000000     0.0402149  
H899     H      0.794450000000     0.499350000000     0.644330000000     0.0351132  
H900     H      0.743070000000     0.575460000000     0.595080000000     0.0715695  
H901     H      0.463420000000     0.690500000000     0.823280000000     0.0713626  
H902     H      0.502980000000     0.698790000000     0.869830000000     0.0447031  
H903     H      0.535320000000     0.753000000000     0.865640000000     0.0424477  
H904     H      0.502620000000     0.798320000000     0.845530000000     0.035763   
H905     H      0.973330000000     0.696230000000     0.901130000000     0.0469185  
H906     H      0.935090000000     0.682740000000     0.854950000000     0.0623127  
H907     H      0.941770000000     0.738500000000     0.875960000000     0.0187563  
H908     H      0.529370000000     0.782630000000     0.896480000000     0.0382664  
H909     H      0.974290000000     0.791190000000     0.877290000000     0.039016   
H910     H      0.926070000000     0.712150000000     0.824750000000     0.0793284  
H911     H      0.574430000000     0.744160000000     0.582080000000     0.0694427  
H912     H      0.556350000000     0.770860000000     0.636400000000     0.0449839  
H913     H      0.505340000000     0.806670000000     0.631610000000     0.0372617  
H914     H      0.971860000000     0.786620000000     0.588950000000     0.0379104  
H915     H      0.552790000000     0.733690000000     0.658500000000     0.0461301  
H916     H      0.579300000000     0.711400000000     0.610200000000     0.0609079  
H917     H      0.018530000000     0.710570000000     0.616840000000     0.0221378  
H918     H      0.969470000000     0.792130000000     0.649680000000     0.0404015  
H919     H      0.964930000000     0.749760000000     0.610070000000     0.0367166  
H920     H      0.057860000000     0.704890000000     0.573770000000     0.0786221  
H921     H      0.572980000000     0.955460000000     0.708810000000     0.0778535  
H922     H      0.625030000000     0.984450000000     0.717050000000     0.0442627  
H923     H      0.622350000000     0.539680000000     0.753010000000     0.0401503  
H924     H      0.583770000000     0.534270000000     0.796950000000     0.0382526  
H925     H      0.643490000000     0.950740000000     0.736250000000     0.0490204  
H926     H      0.592380000000     0.920490000000     0.724940000000     0.0612094  
H927     H      0.602330000000     0.947680000000     0.776650000000     0.0177002  
H928     H      0.642330000000     0.537900000000     0.791530000000     0.0411312  
H929     H      0.603650000000     0.498920000000     0.812000000000     0.0397301  
H930     H      0.555890000000     0.933520000000     0.742630000000     0.0745333  
H931     H      0.901140000000     0.501960000000     0.689390000000     0.0747609  
H932     H      0.850020000000     0.481500000000     0.710630000000     0.0401381  
H933     H      0.859470000000     0.952630000000     0.767430000000     0.0361062  
H934     H      0.893600000000     0.983280000000     0.804730000000     0.0392101  
H935     H      0.828230000000     0.518410000000     0.711330000000     0.0430921  
H936     H      0.876900000000     0.536500000000     0.680890000000     0.0584527  
H937     H      0.869180000000     0.546010000000     0.739850000000     0.0178269  
H938     H      0.836920000000     0.968500000000     0.801050000000     0.0356643  
H939     H      0.868890000000     0.018290000000     0.800260000000     0.040807   
H940     H      0.913570000000     0.541960000000     0.701130000000     0.073154   
H941     H      0.432140000000     0.924120000000     0.725940000000     0.0783281  
H942     H      0.475020000000     0.881800000000     0.718050000000     0.0470956  
H943     H      0.530110000000     0.881660000000     0.751300000000     0.0361281  
H944     H      0.521320000000     0.907920000000     0.803670000000     0.0340221  
H945     H      0.946200000000     0.852040000000     0.729030000000     0.0482667  
H946     H      0.903940000000     0.896140000000     0.742140000000     0.062516   
H947     H      0.940190000000     0.876650000000     0.782630000000     0.020007   
H948     H      0.533650000000     0.852190000000     0.782930000000     0.0395619  
H949     H      0.991950000000     0.878260000000     0.814590000000     0.0364096  
H950     H      0.915960000000     0.929960000000     0.766120000000     0.0716437  
H951     H      0.938840000000     0.585490000000     0.718860000000     0.0675464  
H952     H      0.949700000000     0.638870000000     0.747440000000     0.0457198  
H953     H      0.495840000000     0.641780000000     0.795630000000     0.035412   
H954     H      0.530920000000     0.597560000000     0.785240000000     0.037984   
H955     H      0.960860000000     0.658200000000     0.710160000000     0.0456832  
H956     H      0.944600000000     0.609390000000     0.683070000000     0.0588755  
H957     H      0.002160000000     0.617620000000     0.700150000000     0.0209041  
H958     H      0.532750000000     0.658750000000     0.782880000000     0.0408276  
H959     H      0.543730000000     0.614520000000     0.747690000000     0.0358784  
H960     H      0.966080000000     0.572930000000     0.686940000000     0.0761696  
N1       N      0.349410000000     0.264040000000     0.011190000000    -0.180886   
N2       N      0.413450000000     0.249210000000     0.999700000000    -0.167984   
N3       N      0.098650000000     0.240650000000     0.989260000000    -0.182013   
N4       N      0.164070000000     0.249770000000     0.998720000000    -0.167425   
N5       N      0.249720000000     0.347280000000     0.514630000000    -0.182028   
N6       N      0.254150000000     0.414000000000     0.524130000000    -0.167608   
N7       N      0.265220000000     0.161600000000     0.492040000000    -0.183405   
N8       N      0.248470000000     0.101230000000     0.014930000000    -0.169061   
N9       N      0.240550000000     0.006570000000     0.423110000000    -0.182036   
N10      N      0.246410000000     0.995660000000     0.356590000000    -0.167115   
N11      N      0.259370000000     0.013530000000     0.110560000000    -0.184094   
N12      N      0.233670000000     0.992040000000     0.168270000000    -0.168133   
N13      N      0.975890000000     0.254360000000     0.342130000000    -0.18253    
N14      N      0.002630000000     0.238480000000     0.401550000000    -0.167955   
N15      N      0.010750000000     0.253160000000     0.089890000000    -0.180743   
N16      N      0.011300000000     0.263250000000     0.157000000000    -0.167318   
N17      N      0.079950000000     0.491900000000     0.267380000000    -0.182628   
N18      N      0.146050000000     0.495790000000     0.261750000000    -0.167783   
N19      N      0.395190000000     0.006730000000     0.258120000000    -0.181657   
N20      N      0.330340000000     0.492150000000     0.255710000000    -0.170072   
N21      N      0.477060000000     0.410350000000     0.278010000000    -0.183363   
N22      N      0.491280000000     0.349620000000     0.253790000000    -0.167503   
N23      N      0.498010000000     0.094260000000     0.245520000000    -0.181424   
N24      N      0.494240000000     0.161730000000     0.248870000000    -0.168031   
N25      N      0.349410000000     0.264040000000     0.511190000000    -0.180886   
N26      N      0.413450000000     0.249210000000     0.499700000000    -0.167985   
N27      N      0.098650000000     0.240650000000     0.489260000000    -0.182008   
N28      N      0.164070000000     0.249770000000     0.498720000000    -0.167445   
N29      N      0.249720000000     0.347280000000     0.014630000000    -0.182028   
N30      N      0.254150000000     0.414000000000     0.024130000000    -0.167608   
N31      N      0.265220000000     0.161600000000     0.992040000000    -0.183401   
N32      N      0.248470000000     0.101230000000     0.514920000000    -0.169068   
N33      N      0.240550000000     0.006570000000     0.923110000000    -0.182036   
N34      N      0.246410000000     0.995660000000     0.856590000000    -0.167115   
N35      N      0.259370000000     0.013530000000     0.610560000000    -0.184094   
N36      N      0.233670000000     0.992040000000     0.668270000000    -0.168133   
N37      N      0.975890000000     0.254360000000     0.842130000000    -0.182527   
N38      N      0.002630000000     0.238480000000     0.901550000000    -0.167956   
N39      N      0.010750000000     0.253160000000     0.589890000000    -0.180744   
N40      N      0.011300000000     0.263250000000     0.657000000000    -0.167253   
N41      N      0.079950000000     0.491900000000     0.767380000000    -0.182622   
N42      N      0.146050000000     0.495790000000     0.761750000000    -0.16778    
N43      N      0.395190000000     0.006730000000     0.758120000000    -0.18165    
N44      N      0.330340000000     0.492150000000     0.755700000000    -0.170061   
N45      N      0.477060000000     0.410350000000     0.778010000000    -0.183358   
N46      N      0.491280000000     0.349620000000     0.753790000000    -0.167502   
N47      N      0.498010000000     0.094260000000     0.745520000000    -0.181416   
N48      N      0.494240000000     0.161730000000     0.748880000000    -0.168035   
N49      N      0.349410000000     0.764040000000     0.011190000000    -0.180886   
N50      N      0.413450000000     0.749210000000     0.999700000000    -0.167984   
N51      N      0.098650000000     0.740660000000     0.989260000000    -0.182016   
N52      N      0.164070000000     0.749780000000     0.998720000000    -0.167428   
N53      N      0.249720000000     0.847280000000     0.514630000000    -0.182037   
N54      N      0.254150000000     0.914000000000     0.524130000000    -0.16754    
N55      N      0.265220000000     0.661600000000     0.492040000000    -0.18341    
N56      N      0.248470000000     0.601230000000     0.014930000000    -0.169057   
N57      N      0.240550000000     0.506570000000     0.423110000000    -0.182064   
N58      N      0.246410000000     0.495660000000     0.356590000000    -0.167091   
N59      N      0.259370000000     0.513530000000     0.110560000000    -0.184122   
N60      N      0.233670000000     0.492040000000     0.168270000000    -0.168159   
N61      N      0.975890000000     0.754360000000     0.342130000000    -0.18251    
N62      N      0.002630000000     0.738480000000     0.401550000000    -0.167961   
N63      N      0.010750000000     0.753160000000     0.089890000000    -0.180743   
N64      N      0.011300000000     0.763250000000     0.157000000000    -0.167318   
N65      N      0.079950000000     0.991900000000     0.267380000000    -0.182647   
N66      N      0.146050000000     0.995790000000     0.261750000000    -0.167799   
N67      N      0.395190000000     0.506730000000     0.258120000000    -0.181696   
N68      N      0.330340000000     0.992150000000     0.255710000000    -0.170104   
N69      N      0.477060000000     0.910350000000     0.278010000000    -0.183381   
N70      N      0.491280000000     0.849620000000     0.253790000000    -0.167503   
N71      N      0.498010000000     0.594260000000     0.245520000000    -0.181427   
N72      N      0.494240000000     0.661730000000     0.248870000000    -0.168026   
N73      N      0.349410000000     0.764040000000     0.511190000000    -0.180886   
N74      N      0.413450000000     0.749210000000     0.499700000000    -0.167985   
N75      N      0.098650000000     0.740660000000     0.489260000000    -0.182012   
N76      N      0.164070000000     0.749780000000     0.498720000000    -0.167448   
N77      N      0.249720000000     0.847280000000     0.014630000000    -0.182037   
N78      N      0.254150000000     0.914000000000     0.024130000000    -0.167539   
N79      N      0.265220000000     0.661600000000     0.992040000000    -0.183405   
N80      N      0.248470000000     0.601230000000     0.514920000000    -0.169064   
N81      N      0.240550000000     0.506570000000     0.923110000000    -0.182064   
N82      N      0.246410000000     0.495660000000     0.856590000000    -0.167091   
N83      N      0.259370000000     0.513530000000     0.610560000000    -0.184122   
N84      N      0.233670000000     0.492040000000     0.668270000000    -0.168159   
N85      N      0.975890000000     0.754360000000     0.842130000000    -0.182508   
N86      N      0.002630000000     0.738480000000     0.901550000000    -0.167962   
N87      N      0.010750000000     0.753160000000     0.589890000000    -0.180744   
N88      N      0.011300000000     0.763250000000     0.657000000000    -0.167253   
N89      N      0.079950000000     0.991900000000     0.767380000000    -0.182642   
N90      N      0.146050000000     0.995790000000     0.761750000000    -0.167797   
N91      N      0.395190000000     0.506730000000     0.758120000000    -0.181689   
N92      N      0.330340000000     0.992150000000     0.755700000000    -0.170094   
N93      N      0.477060000000     0.910350000000     0.778010000000    -0.183376   
N94      N      0.491280000000     0.849620000000     0.753790000000    -0.167502   
N95      N      0.498010000000     0.594260000000     0.745520000000    -0.181419   
N96      N      0.494240000000     0.661730000000     0.748880000000    -0.16803    
N97      N      0.849410000000     0.264040000000     0.011190000000    -0.180887   
N98      N      0.913450000000     0.249210000000     0.999700000000    -0.168062   
N99      N      0.598660000000     0.240650000000     0.989260000000    -0.181932   
N100     N      0.664070000000     0.249770000000     0.998720000000    -0.167426   
N101     N      0.749720000000     0.347280000000     0.514630000000    -0.182028   
N102     N      0.754150000000     0.414000000000     0.524130000000    -0.167614   
N103     N      0.765220000000     0.161600000000     0.492040000000    -0.183404   
N104     N      0.748470000000     0.101230000000     0.014930000000    -0.169066   
N105     N      0.740550000000     0.006570000000     0.423110000000    -0.18204    
N106     N      0.746410000000     0.995660000000     0.356590000000    -0.167119   
N107     N      0.759370000000     0.013530000000     0.110560000000    -0.184097   
N108     N      0.733670000000     0.992040000000     0.168270000000    -0.168136   
N109     N      0.475890000000     0.254360000000     0.342130000000    -0.182832   
N110     N      0.502630000000     0.238480000000     0.401550000000    -0.168479   
N111     N      0.510750000000     0.253160000000     0.089890000000    -0.181155   
N112     N      0.511300000000     0.263250000000     0.157000000000    -0.167779   
N113     N      0.579950000000     0.491900000000     0.267380000000    -0.182695   
N114     N      0.646050000000     0.495790000000     0.261750000000    -0.16779    
N115     N      0.895190000000     0.006730000000     0.258120000000    -0.181645   
N116     N      0.830340000000     0.492150000000     0.255710000000    -0.170072   
N117     N      0.977060000000     0.410350000000     0.278010000000    -0.18397    
N118     N      0.991280000000     0.349620000000     0.253790000000    -0.16776    
N119     N      0.998010000000     0.094260000000     0.245520000000    -0.181697   
N120     N      0.994240000000     0.161730000000     0.248870000000    -0.168572   
N121     N      0.849410000000     0.264040000000     0.511190000000    -0.180887   
N122     N      0.913450000000     0.249210000000     0.499700000000    -0.168063   
N123     N      0.598660000000     0.240650000000     0.489260000000    -0.181927   
N124     N      0.664070000000     0.249770000000     0.498720000000    -0.167446   
N125     N      0.749720000000     0.347280000000     0.014630000000    -0.182028   
N126     N      0.754150000000     0.414000000000     0.024130000000    -0.167614   
N127     N      0.765220000000     0.161600000000     0.992040000000    -0.1834     
N128     N      0.748470000000     0.101230000000     0.514920000000    -0.169073   
N129     N      0.740550000000     0.006570000000     0.923110000000    -0.18204    
N130     N      0.746410000000     0.995660000000     0.856590000000    -0.167119   
N131     N      0.759370000000     0.013530000000     0.610560000000    -0.184097   
N132     N      0.733670000000     0.992040000000     0.668270000000    -0.168136   
N133     N      0.475890000000     0.254360000000     0.842130000000    -0.18283    
N134     N      0.502630000000     0.238480000000     0.901550000000    -0.168479   
N135     N      0.510750000000     0.253160000000     0.589890000000    -0.181156   
N136     N      0.511300000000     0.263250000000     0.657000000000    -0.167714   
N137     N      0.579950000000     0.491900000000     0.767380000000    -0.182689   
N138     N      0.646050000000     0.495790000000     0.761750000000    -0.167788   
N139     N      0.895190000000     0.006730000000     0.758120000000    -0.181639   
N140     N      0.830340000000     0.492150000000     0.755700000000    -0.170062   
N141     N      0.977060000000     0.410350000000     0.778010000000    -0.183965   
N142     N      0.991280000000     0.349620000000     0.753790000000    -0.16776    
N143     N      0.998010000000     0.094260000000     0.745520000000    -0.181689   
N144     N      0.994240000000     0.161730000000     0.748880000000    -0.168576   
N145     N      0.849410000000     0.764040000000     0.011190000000    -0.180888   
N146     N      0.913450000000     0.749210000000     0.999700000000    -0.168062   
N147     N      0.598660000000     0.740660000000     0.989260000000    -0.181935   
N148     N      0.664070000000     0.749780000000     0.998720000000    -0.167429   
N149     N      0.749720000000     0.847280000000     0.514630000000    -0.182037   
N150     N      0.754150000000     0.914000000000     0.524130000000    -0.167545   
N151     N      0.765220000000     0.661600000000     0.492040000000    -0.183409   
N152     N      0.748470000000     0.601230000000     0.014930000000    -0.169062   
N153     N      0.740550000000     0.506570000000     0.423110000000    -0.182069   
N154     N      0.746410000000     0.495660000000     0.356590000000    -0.167095   
N155     N      0.759370000000     0.513530000000     0.110560000000    -0.184125   
N156     N      0.733670000000     0.492040000000     0.168270000000    -0.168162   
N157     N      0.475890000000     0.754360000000     0.342130000000    -0.182812   
N158     N      0.502630000000     0.738480000000     0.401550000000    -0.168484   
N159     N      0.510750000000     0.753160000000     0.089890000000    -0.181155   
N160     N      0.511300000000     0.763250000000     0.157000000000    -0.167779   
N161     N      0.579950000000     0.991900000000     0.267380000000    -0.182715   
N162     N      0.646050000000     0.995790000000     0.261750000000    -0.167807   
N163     N      0.895190000000     0.506730000000     0.258120000000    -0.181684   
N164     N      0.830340000000     0.992150000000     0.255710000000    -0.170105   
N165     N      0.977060000000     0.910350000000     0.278010000000    -0.183988   
N166     N      0.991280000000     0.849620000000     0.253790000000    -0.16776    
N167     N      0.998010000000     0.594260000000     0.245520000000    -0.1817     
N168     N      0.994240000000     0.661730000000     0.248870000000    -0.168568   
N169     N      0.849410000000     0.764040000000     0.511190000000    -0.180887   
N170     N      0.913450000000     0.749210000000     0.499700000000    -0.168063   
N171     N      0.598660000000     0.740660000000     0.489260000000    -0.181931   
N172     N      0.664070000000     0.749780000000     0.498720000000    -0.167449   
N173     N      0.749720000000     0.847280000000     0.014630000000    -0.182037   
N174     N      0.754150000000     0.914000000000     0.024130000000    -0.167545   
N175     N      0.765220000000     0.661600000000     0.992040000000    -0.183404   
N176     N      0.748470000000     0.601230000000     0.514920000000    -0.169069   
N177     N      0.740550000000     0.506570000000     0.923110000000    -0.182069   
N178     N      0.746410000000     0.495660000000     0.856590000000    -0.167095   
N179     N      0.759370000000     0.513530000000     0.610560000000    -0.184125   
N180     N      0.733670000000     0.492040000000     0.668270000000    -0.168162   
N181     N      0.475890000000     0.754360000000     0.842130000000    -0.18281    
N182     N      0.502630000000     0.738480000000     0.901550000000    -0.168485   
N183     N      0.510750000000     0.753160000000     0.589890000000    -0.181156   
N184     N      0.511300000000     0.763250000000     0.657000000000    -0.167713   
N185     N      0.579950000000     0.991900000000     0.767380000000    -0.182709   
N186     N      0.646050000000     0.995790000000     0.761750000000    -0.167805   
N187     N      0.895190000000     0.506730000000     0.758120000000    -0.181678   
N188     N      0.830340000000     0.992150000000     0.755700000000    -0.170095   
N189     N      0.977060000000     0.910350000000     0.778010000000    -0.183983   
N190     N      0.991280000000     0.849620000000     0.753790000000    -0.167759   
N191     N      0.998010000000     0.594260000000     0.745520000000    -0.181692   
N192     N      0.994240000000     0.661730000000     0.748880000000    -0.168571   
Ni1      Ni     0.487470000000     0.007080000000     0.290120000000     1.00145    
Ni2      Ni     0.988480000000     0.997000000000     0.233500000000     0.986969   
Ni3      Ni     0.021120000000     0.256020000000     0.255300000000     0.994744   
Ni4      Ni     0.465850000000     0.255350000000     0.243770000000     0.994155   
Ni5      Ni     0.238780000000     0.022120000000     0.261710000000     1.00187    
Ni6      Ni     0.238170000000     0.465310000000     0.263220000000     0.989218   
Ni7      Ni     0.222280000000     0.006960000000     0.019680000000     0.983681   
Ni8      Ni     0.278200000000     0.508160000000     0.014310000000     1.00232    
Ni9      Ni     0.004950000000     0.216720000000     0.998570000000     0.983114   
Ni10     Ni     0.007170000000     0.273550000000     0.493110000000     1.00161    
Ni11     Ni     0.258390000000     0.258070000000     0.475720000000     0.997502   
Ni12     Ni     0.255180000000     0.250420000000     0.032540000000     0.982004   
Ni13     Ni     0.487470000000     0.007080000000     0.790120000000     1.0013     
Ni14     Ni     0.988480000000     0.997000000000     0.733510000000     0.986894   
Ni15     Ni     0.021120000000     0.256020000000     0.755300000000     0.994753   
Ni16     Ni     0.465850000000     0.255350000000     0.743770000000     0.994151   
Ni17     Ni     0.238780000000     0.022120000000     0.761710000000     1.00187    
Ni18     Ni     0.238170000000     0.465310000000     0.763220000000     0.989218   
Ni19     Ni     0.222280000000     0.006960000000     0.519680000000     0.98368    
Ni20     Ni     0.278200000000     0.508160000000     0.514310000000     1.00232    
Ni21     Ni     0.004950000000     0.216720000000     0.498570000000     0.98311    
Ni22     Ni     0.007170000000     0.273550000000     0.993110000000     1.00162    
Ni23     Ni     0.258390000000     0.258070000000     0.975720000000     0.997504   
Ni24     Ni     0.255180000000     0.250420000000     0.532540000000     0.982005   
Ni25     Ni     0.487470000000     0.507080000000     0.290120000000     1.00154    
Ni26     Ni     0.988480000000     0.497000000000     0.233500000000     0.987062   
Ni27     Ni     0.021120000000     0.756030000000     0.255300000000     0.994746   
Ni28     Ni     0.465850000000     0.755350000000     0.243770000000     0.994157   
Ni29     Ni     0.238780000000     0.522120000000     0.261710000000     1.00172    
Ni30     Ni     0.238170000000     0.965300000000     0.263220000000     0.98919    
Ni31     Ni     0.222280000000     0.506960000000     0.019680000000     0.98359    
Ni32     Ni     0.278200000000     0.008160000000     0.014310000000     1.00217    
Ni33     Ni     0.004950000000     0.716720000000     0.998570000000     0.983114   
Ni34     Ni     0.007170000000     0.773550000000     0.493110000000     1.00161    
Ni35     Ni     0.258390000000     0.758070000000     0.475720000000     0.997567   
Ni36     Ni     0.255180000000     0.750410000000     0.032540000000     0.981819   
Ni37     Ni     0.487470000000     0.507080000000     0.790120000000     1.00139    
Ni38     Ni     0.988480000000     0.497000000000     0.733510000000     0.986987   
Ni39     Ni     0.021120000000     0.756030000000     0.755300000000     0.994756   
Ni40     Ni     0.465850000000     0.755350000000     0.743770000000     0.994153   
Ni41     Ni     0.238780000000     0.522120000000     0.761710000000     1.00172    
Ni42     Ni     0.238170000000     0.965300000000     0.763220000000     0.98919    
Ni43     Ni     0.222280000000     0.506960000000     0.519680000000     0.98359    
Ni44     Ni     0.278200000000     0.008160000000     0.514310000000     1.00217    
Ni45     Ni     0.004950000000     0.716720000000     0.498570000000     0.98311    
Ni46     Ni     0.007170000000     0.773550000000     0.993110000000     1.00161    
Ni47     Ni     0.258390000000     0.758070000000     0.975720000000     0.997569   
Ni48     Ni     0.255180000000     0.750410000000     0.532540000000     0.98182    
Ni49     Ni     0.987470000000     0.007080000000     0.290120000000     1.00041    
Ni50     Ni     0.488480000000     0.997000000000     0.233500000000     0.987995   
Ni51     Ni     0.521120000000     0.256020000000     0.255300000000     0.993927   
Ni52     Ni     0.965850000000     0.255350000000     0.243770000000     0.993007   
Ni53     Ni     0.738780000000     0.022120000000     0.261710000000     1.00188    
Ni54     Ni     0.738170000000     0.465310000000     0.263220000000     0.989224   
Ni55     Ni     0.722280000000     0.006960000000     0.019680000000     0.98364    
Ni56     Ni     0.778200000000     0.508160000000     0.014310000000     1.00229    
Ni57     Ni     0.504950000000     0.216720000000     0.998570000000     0.981978   
Ni58     Ni     0.507170000000     0.273550000000     0.493110000000     1.0005     
Ni59     Ni     0.758390000000     0.258070000000     0.475720000000     0.997506   
Ni60     Ni     0.755180000000     0.250420000000     0.032540000000     0.982012   
Ni61     Ni     0.987470000000     0.007080000000     0.790120000000     1.00026    
Ni62     Ni     0.488480000000     0.997000000000     0.733510000000     0.987919   
Ni63     Ni     0.521120000000     0.256020000000     0.755300000000     0.993936   
Ni64     Ni     0.965850000000     0.255350000000     0.743770000000     0.993004   
Ni65     Ni     0.738780000000     0.022120000000     0.761710000000     1.00188    
Ni66     Ni     0.738170000000     0.465310000000     0.763220000000     0.989224   
Ni67     Ni     0.722280000000     0.006960000000     0.519680000000     0.98364    
Ni68     Ni     0.778200000000     0.508160000000     0.514310000000     1.00229    
Ni69     Ni     0.504950000000     0.216720000000     0.498570000000     0.981974   
Ni70     Ni     0.507170000000     0.273550000000     0.993110000000     1.0005     
Ni71     Ni     0.758390000000     0.258070000000     0.975720000000     0.997508   
Ni72     Ni     0.755180000000     0.250420000000     0.532540000000     0.982013   
Ni73     Ni     0.987470000000     0.507080000000     0.290120000000     1.00049    
Ni74     Ni     0.488480000000     0.497000000000     0.233500000000     0.988088   
Ni75     Ni     0.521120000000     0.756030000000     0.255300000000     0.993929   
Ni76     Ni     0.965850000000     0.755350000000     0.243770000000     0.993009   
Ni77     Ni     0.738780000000     0.522120000000     0.261710000000     1.00172    
Ni78     Ni     0.738170000000     0.965300000000     0.263220000000     0.989196   
Ni79     Ni     0.722280000000     0.506960000000     0.019680000000     0.983549   
Ni80     Ni     0.778200000000     0.008160000000     0.014310000000     1.00214    
Ni81     Ni     0.504950000000     0.716720000000     0.998570000000     0.981978   
Ni82     Ni     0.507170000000     0.773550000000     0.493110000000     1.00049    
Ni83     Ni     0.758390000000     0.758070000000     0.475720000000     0.997571   
Ni84     Ni     0.755180000000     0.750410000000     0.032540000000     0.981827   
Ni85     Ni     0.987470000000     0.507080000000     0.790120000000     1.00034    
Ni86     Ni     0.488480000000     0.497000000000     0.733510000000     0.988012   
Ni87     Ni     0.521120000000     0.756030000000     0.755300000000     0.993939   
Ni88     Ni     0.965850000000     0.755350000000     0.743770000000     0.993006   
Ni89     Ni     0.738780000000     0.522120000000     0.761710000000     1.00172    
Ni90     Ni     0.738170000000     0.965300000000     0.763220000000     0.989195   
Ni91     Ni     0.722280000000     0.506960000000     0.519680000000     0.983549   
Ni92     Ni     0.778200000000     0.008160000000     0.514310000000     1.00214    
Ni93     Ni     0.504950000000     0.716720000000     0.498570000000     0.981974   
Ni94     Ni     0.507170000000     0.773550000000     0.993110000000     1.0005     
Ni95     Ni     0.758390000000     0.758070000000     0.975720000000     0.997573   
Ni96     Ni     0.755180000000     0.750410000000     0.532540000000     0.981828   
O1       O      0.442110000000     0.508790000000     0.286220000000    -0.45314    
O2       O      0.032460000000     0.004420000000     0.290260000000    -0.45525    
O3       O      0.491020000000     0.052010000000     0.280210000000    -0.44908    
O4       O      0.985010000000     0.461420000000     0.296240000000    -0.450158   
O5       O      0.481820000000     0.452580000000     0.243210000000    -0.455969   
O6       O      0.994090000000     0.042330000000     0.227410000000    -0.453514   
O7       O      0.033540000000     0.491060000000     0.238200000000    -0.451426   
O8       O      0.443620000000     0.003010000000     0.232900000000    -0.45827    
O9       O      0.018680000000     0.302050000000     0.255100000000    -0.447911   
O10      O      0.019560000000     0.209950000000     0.255970000000    -0.448447   
O11      O      0.028020000000     0.255530000000     0.209240000000    -0.447511   
O12      O      0.010480000000     0.256760000000     0.300020000000    -0.454075   
O13      O      0.459000000000     0.250690000000     0.289600000000    -0.45021    
O14      O      0.476380000000     0.260370000000     0.199120000000    -0.450841   
O15      O      0.469200000000     0.209650000000     0.239850000000    -0.451859   
O16      O      0.466370000000     0.301130000000     0.247850000000    -0.450456   
O17      O      0.193880000000     0.020880000000     0.268220000000    -0.451327   
O18      O      0.283520000000     0.019200000000     0.254580000000    -0.45201    
O19      O      0.231970000000     0.019090000000     0.216210000000    -0.453279   
O20      O      0.245690000000     0.021020000000     0.307470000000    -0.450944   
O21      O      0.236260000000     0.468510000000     0.309480000000    -0.446763   
O22      O      0.240350000000     0.466340000000     0.216810000000    -0.447695   
O23      O      0.283490000000     0.466800000000     0.265520000000    -0.450108   
O24      O      0.192900000000     0.468020000000     0.260570000000    -0.449928   
O25      O      0.222740000000     0.052740000000     0.513270000000    -0.447276   
O26      O      0.226050000000     0.461310000000     0.025920000000    -0.445608   
O27      O      0.228630000000     0.013450000000     0.065030000000    -0.4541     
O28      O      0.219910000000     0.500860000000     0.473850000000    -0.449068   
O29      O      0.271570000000     0.010370000000     0.468470000000    -0.453323   
O30      O      0.280740000000     0.506130000000     0.060470000000    -0.452299   
O31      O      0.277160000000     0.462390000000     0.512690000000    -0.452937   
O32      O      0.275410000000     0.053810000000     0.016830000000    -0.456195   
O33      O      0.510140000000     0.222290000000     0.044190000000    -0.451276   
O34      O      0.000070000000     0.215160000000     0.452030000000    -0.443323   
O35      O      0.050270000000     0.216310000000     0.994270000000    -0.44948    
O36      O      0.459830000000     0.221040000000     0.503510000000    -0.446711   
O37      O      0.461600000000     0.273390000000     0.992620000000    -0.448069   
O38      O      0.052550000000     0.269710000000     0.492500000000    -0.452479   
O39      O      0.507310000000     0.267900000000     0.447630000000    -0.45861    
O40      O      0.006970000000     0.275470000000     0.039550000000    -0.450361   
O41      O      0.212800000000     0.257110000000     0.475040000000    -0.447418   
O42      O      0.303830000000     0.259710000000     0.480780000000    -0.446951   
O43      O      0.259370000000     0.212150000000     0.471650000000    -0.451002   
O44      O      0.257060000000     0.303050000000     0.483230000000    -0.455799   
O45      O      0.248800000000     0.296190000000     0.035900000000    -0.448617   
O46      O      0.261870000000     0.205520000000     0.025010000000    -0.453125   
O47      O      0.300240000000     0.256270000000     0.034180000000    -0.453262   
O48      O      0.210350000000     0.244600000000     0.027260000000    -0.450089   
O49      O      0.442110000000     0.508790000000     0.786220000000    -0.453116   
O50      O      0.032460000000     0.004420000000     0.790260000000    -0.455226   
O51      O      0.491020000000     0.052010000000     0.780210000000    -0.449054   
O52      O      0.985010000000     0.461420000000     0.796240000000    -0.450137   
O53      O      0.481820000000     0.452580000000     0.743210000000    -0.455957   
O54      O      0.994090000000     0.042330000000     0.727410000000    -0.453462   
O55      O      0.033540000000     0.491060000000     0.738200000000    -0.451402   
O56      O      0.443620000000     0.003010000000     0.732900000000    -0.458232   
O57      O      0.018680000000     0.302050000000     0.755100000000    -0.447913   
O58      O      0.019560000000     0.209950000000     0.755970000000    -0.448446   
O59      O      0.028020000000     0.255530000000     0.709240000000    -0.44761    
O60      O      0.010480000000     0.256760000000     0.800020000000    -0.454075   
O61      O      0.459000000000     0.250690000000     0.789600000000    -0.450209   
O62      O      0.476380000000     0.260370000000     0.699120000000    -0.450902   
O63      O      0.469200000000     0.209650000000     0.739850000000    -0.451859   
O64      O      0.466370000000     0.301130000000     0.747850000000    -0.450455   
O65      O      0.193880000000     0.020880000000     0.768220000000    -0.451327   
O66      O      0.283520000000     0.019200000000     0.754580000000    -0.452006   
O67      O      0.231970000000     0.019090000000     0.716210000000    -0.453279   
O68      O      0.245690000000     0.021020000000     0.807470000000    -0.450944   
O69      O      0.236260000000     0.468510000000     0.809480000000    -0.446763   
O70      O      0.240350000000     0.466340000000     0.716810000000    -0.447694   
O71      O      0.283490000000     0.466800000000     0.765520000000    -0.450105   
O72      O      0.192900000000     0.468020000000     0.760570000000    -0.449928   
O73      O      0.222740000000     0.052740000000     0.013270000000    -0.447275   
O74      O      0.226050000000     0.461310000000     0.525920000000    -0.445608   
O75      O      0.228630000000     0.013450000000     0.565030000000    -0.4541     
O76      O      0.219910000000     0.500860000000     0.973850000000    -0.449067   
O77      O      0.271570000000     0.010370000000     0.968470000000    -0.453323   
O78      O      0.280740000000     0.506130000000     0.560470000000    -0.452299   
O79      O      0.277160000000     0.462390000000     0.012690000000    -0.452937   
O80      O      0.275410000000     0.053810000000     0.516830000000    -0.456196   
O81      O      0.510140000000     0.222290000000     0.544190000000    -0.451275   
O82      O      0.000070000000     0.215160000000     0.952030000000    -0.443323   
O83      O      0.050270000000     0.216310000000     0.494270000000    -0.449479   
O84      O      0.459830000000     0.221040000000     0.003510000000    -0.446712   
O85      O      0.461600000000     0.273390000000     0.492620000000    -0.448069   
O86      O      0.052550000000     0.269710000000     0.992500000000    -0.452479   
O87      O      0.507310000000     0.267900000000     0.947630000000    -0.45861    
O88      O      0.006970000000     0.275470000000     0.539550000000    -0.45036    
O89      O      0.212800000000     0.257110000000     0.975040000000    -0.447417   
O90      O      0.303830000000     0.259710000000     0.980780000000    -0.446951   
O91      O      0.259370000000     0.212150000000     0.971650000000    -0.451002   
O92      O      0.257060000000     0.303050000000     0.983230000000    -0.455799   
O93      O      0.248800000000     0.296190000000     0.535900000000    -0.448617   
O94      O      0.261870000000     0.205520000000     0.525010000000    -0.453124   
O95      O      0.300240000000     0.256270000000     0.534180000000    -0.453262   
O96      O      0.210350000000     0.244600000000     0.527260000000    -0.450091   
O97      O      0.442110000000     0.008790000000     0.286220000000    -0.453105   
O98      O      0.032460000000     0.504420000000     0.290260000000    -0.455313   
O99      O      0.491020000000     0.552010000000     0.280210000000    -0.4491     
O100     O      0.985010000000     0.961410000000     0.296240000000    -0.450158   
O101     O      0.481820000000     0.952580000000     0.243210000000    -0.45599    
O102     O      0.994090000000     0.542330000000     0.227410000000    -0.45354    
O103     O      0.033540000000     0.991060000000     0.238200000000    -0.451412   
O104     O      0.443620000000     0.503020000000     0.232900000000    -0.458318   
O105     O      0.018680000000     0.802050000000     0.255100000000    -0.448029   
O106     O      0.019560000000     0.709950000000     0.255970000000    -0.448331   
O107     O      0.028020000000     0.755530000000     0.209240000000    -0.447509   
O108     O      0.010480000000     0.756760000000     0.300020000000    -0.454076   
O109     O      0.459000000000     0.750690000000     0.289600000000    -0.450209   
O110     O      0.476380000000     0.760370000000     0.199120000000    -0.450841   
O111     O      0.469200000000     0.709650000000     0.239850000000    -0.451843   
O112     O      0.466370000000     0.801130000000     0.247850000000    -0.450473   
O113     O      0.193880000000     0.520880000000     0.268220000000    -0.451349   
O114     O      0.283520000000     0.519200000000     0.254580000000    -0.452028   
O115     O      0.231970000000     0.519090000000     0.216210000000    -0.453361   
O116     O      0.245690000000     0.521020000000     0.307470000000    -0.450969   
O117     O      0.236260000000     0.968510000000     0.309480000000    -0.446768   
O118     O      0.240350000000     0.966330000000     0.216810000000    -0.447545   
O119     O      0.283490000000     0.966800000000     0.265520000000    -0.450123   
O120     O      0.192900000000     0.968020000000     0.260570000000    -0.449937   
O121     O      0.222740000000     0.552740000000     0.513270000000    -0.447238   
O122     O      0.226050000000     0.961310000000     0.025920000000    -0.445723   
O123     O      0.228630000000     0.513450000000     0.065030000000    -0.454097   
O124     O      0.219910000000     0.000860000000     0.473850000000    -0.449058   
O125     O      0.271570000000     0.510370000000     0.468470000000    -0.453349   
O126     O      0.280740000000     0.006130000000     0.060470000000    -0.452266   
O127     O      0.277160000000     0.962390000000     0.512690000000    -0.453025   
O128     O      0.275410000000     0.553800000000     0.016830000000    -0.456257   
O129     O      0.510140000000     0.722290000000     0.044190000000    -0.451275   
O130     O      0.000070000000     0.715160000000     0.452030000000    -0.443324   
O131     O      0.050270000000     0.716310000000     0.994270000000    -0.449487   
O132     O      0.459830000000     0.721040000000     0.503510000000    -0.446712   
O133     O      0.461600000000     0.773390000000     0.992620000000    -0.448069   
O134     O      0.052550000000     0.769710000000     0.492500000000    -0.452476   
O135     O      0.507310000000     0.767900000000     0.447630000000    -0.458611   
O136     O      0.006970000000     0.775470000000     0.039550000000    -0.450361   
O137     O      0.212800000000     0.757110000000     0.475040000000    -0.447428   
O138     O      0.303830000000     0.759710000000     0.480780000000    -0.446962   
O139     O      0.259370000000     0.712150000000     0.471650000000    -0.451026   
O140     O      0.257060000000     0.803050000000     0.483230000000    -0.455825   
O141     O      0.248800000000     0.796200000000     0.035900000000    -0.448461   
O142     O      0.261870000000     0.705520000000     0.025010000000    -0.453224   
O143     O      0.300240000000     0.756280000000     0.034180000000    -0.453228   
O144     O      0.210350000000     0.744600000000     0.027260000000    -0.450089   
O145     O      0.442110000000     0.008790000000     0.786220000000    -0.453081   
O146     O      0.032460000000     0.504420000000     0.790260000000    -0.455289   
O147     O      0.491020000000     0.552010000000     0.780210000000    -0.449073   
O148     O      0.985010000000     0.961410000000     0.796240000000    -0.450138   
O149     O      0.481820000000     0.952580000000     0.743210000000    -0.455978   
O150     O      0.994090000000     0.542330000000     0.727410000000    -0.453488   
O151     O      0.033540000000     0.991060000000     0.738200000000    -0.451388   
O152     O      0.443620000000     0.503020000000     0.732900000000    -0.45828    
O153     O      0.018680000000     0.802050000000     0.755100000000    -0.44803    
O154     O      0.019560000000     0.709950000000     0.755970000000    -0.44833    
O155     O      0.028020000000     0.755530000000     0.709240000000    -0.447608   
O156     O      0.010480000000     0.756760000000     0.800020000000    -0.454076   
O157     O      0.459000000000     0.750690000000     0.789600000000    -0.450208   
O158     O      0.476380000000     0.760370000000     0.699120000000    -0.450902   
O159     O      0.469200000000     0.709650000000     0.739850000000    -0.451843   
O160     O      0.466370000000     0.801130000000     0.747850000000    -0.450472   
O161     O      0.193880000000     0.520880000000     0.768220000000    -0.45135    
O162     O      0.283520000000     0.519200000000     0.754580000000    -0.452024   
O163     O      0.231970000000     0.519090000000     0.716210000000    -0.453361   
O164     O      0.245690000000     0.521020000000     0.807470000000    -0.450969   
O165     O      0.236260000000     0.968510000000     0.809480000000    -0.446768   
O166     O      0.240350000000     0.966330000000     0.716810000000    -0.447545   
O167     O      0.283490000000     0.966800000000     0.765520000000    -0.450119   
O168     O      0.192900000000     0.968020000000     0.760570000000    -0.449936   
O169     O      0.222740000000     0.552740000000     0.013270000000    -0.447237   
O170     O      0.226050000000     0.961310000000     0.525920000000    -0.445723   
O171     O      0.228630000000     0.513450000000     0.565030000000    -0.454098   
O172     O      0.219910000000     0.000860000000     0.973850000000    -0.449057   
O173     O      0.271570000000     0.510370000000     0.968470000000    -0.453349   
O174     O      0.280740000000     0.006130000000     0.560470000000    -0.452266   
O175     O      0.277160000000     0.962390000000     0.012690000000    -0.453025   
O176     O      0.275410000000     0.553800000000     0.516830000000    -0.456257   
O177     O      0.510140000000     0.722290000000     0.544190000000    -0.451274   
O178     O      0.000070000000     0.715160000000     0.952030000000    -0.443324   
O179     O      0.050270000000     0.716310000000     0.494270000000    -0.449486   
O180     O      0.459830000000     0.721040000000     0.003510000000    -0.446713   
O181     O      0.461600000000     0.773390000000     0.492620000000    -0.448069   
O182     O      0.052550000000     0.769710000000     0.992500000000    -0.452476   
O183     O      0.507310000000     0.767900000000     0.947630000000    -0.458611   
O184     O      0.006970000000     0.775470000000     0.539550000000    -0.45036    
O185     O      0.212800000000     0.757110000000     0.975040000000    -0.447426   
O186     O      0.303830000000     0.759710000000     0.980780000000    -0.446961   
O187     O      0.259370000000     0.712150000000     0.971650000000    -0.451026   
O188     O      0.257060000000     0.803050000000     0.983230000000    -0.455824   
O189     O      0.248800000000     0.796200000000     0.535900000000    -0.448461   
O190     O      0.261870000000     0.705520000000     0.525010000000    -0.453223   
O191     O      0.300240000000     0.756280000000     0.534180000000    -0.453228   
O192     O      0.210350000000     0.744600000000     0.527260000000    -0.450091   
O193     O      0.942110000000     0.508790000000     0.286220000000    -0.452978   
O194     O      0.532460000000     0.004420000000     0.290260000000    -0.456094   
O195     O      0.991020000000     0.052010000000     0.280210000000    -0.449224   
O196     O      0.485010000000     0.461420000000     0.296240000000    -0.449983   
O197     O      0.981820000000     0.452580000000     0.243210000000    -0.456071   
O198     O      0.494090000000     0.042330000000     0.227410000000    -0.453423   
O199     O      0.533540000000     0.491060000000     0.238200000000    -0.452242   
O200     O      0.943620000000     0.003010000000     0.232900000000    -0.458096   
O201     O      0.518680000000     0.302050000000     0.255100000000    -0.448802   
O202     O      0.519560000000     0.209950000000     0.255970000000    -0.449345   
O203     O      0.528020000000     0.255530000000     0.209240000000    -0.447216   
O204     O      0.510480000000     0.256760000000     0.300020000000    -0.455053   
O205     O      0.959000000000     0.250690000000     0.289600000000    -0.449853   
O206     O      0.976380000000     0.260370000000     0.199120000000    -0.451537   
O207     O      0.969200000000     0.209650000000     0.239850000000    -0.451578   
O208     O      0.966370000000     0.301130000000     0.247850000000    -0.450143   
O209     O      0.693880000000     0.020880000000     0.268220000000    -0.451333   
O210     O      0.783520000000     0.019200000000     0.254580000000    -0.452008   
O211     O      0.731970000000     0.019090000000     0.216210000000    -0.453281   
O212     O      0.745690000000     0.021020000000     0.307470000000    -0.450944   
O213     O      0.736260000000     0.468510000000     0.309480000000    -0.446766   
O214     O      0.740350000000     0.466340000000     0.216810000000    -0.447696   
O215     O      0.783490000000     0.466800000000     0.265520000000    -0.450108   
O216     O      0.692900000000     0.468020000000     0.260570000000    -0.449933   
O217     O      0.722740000000     0.052740000000     0.513270000000    -0.447291   
O218     O      0.726050000000     0.461310000000     0.025920000000    -0.445622   
O219     O      0.728630000000     0.013450000000     0.065030000000    -0.454109   
O220     O      0.719910000000     0.500860000000     0.473850000000    -0.449086   
O221     O      0.771570000000     0.010370000000     0.468470000000    -0.453333   
O222     O      0.780740000000     0.506130000000     0.060470000000    -0.452314   
O223     O      0.777160000000     0.462390000000     0.512690000000    -0.452951   
O224     O      0.775410000000     0.053810000000     0.016830000000    -0.456206   
O225     O      0.010140000000     0.222290000000     0.044190000000    -0.451189   
O226     O      0.500070000000     0.215160000000     0.452030000000    -0.443569   
O227     O      0.550270000000     0.216310000000     0.994270000000    -0.449293   
O228     O      0.959830000000     0.221040000000     0.503510000000    -0.447547   
O229     O      0.961600000000     0.273390000000     0.992620000000    -0.448903   
O230     O      0.552550000000     0.269710000000     0.492500000000    -0.452279   
O231     O      0.007310000000     0.267900000000     0.447630000000    -0.458517   
O232     O      0.506970000000     0.275470000000     0.039550000000    -0.45056    
O233     O      0.712800000000     0.257110000000     0.475040000000    -0.447418   
O234     O      0.803830000000     0.259710000000     0.480780000000    -0.446955   
O235     O      0.759370000000     0.212150000000     0.471650000000    -0.451003   
O236     O      0.757060000000     0.303050000000     0.483230000000    -0.455801   
O237     O      0.748800000000     0.296190000000     0.035900000000    -0.448617   
O238     O      0.761870000000     0.205520000000     0.025010000000    -0.453124   
O239     O      0.800240000000     0.256270000000     0.034180000000    -0.453263   
O240     O      0.710350000000     0.244600000000     0.027260000000    -0.450089   
O241     O      0.942110000000     0.508790000000     0.786220000000    -0.452955   
O242     O      0.532460000000     0.004420000000     0.790260000000    -0.45607    
O243     O      0.991020000000     0.052010000000     0.780210000000    -0.449198   
O244     O      0.485010000000     0.461420000000     0.796240000000    -0.449962   
O245     O      0.981820000000     0.452580000000     0.743210000000    -0.456059   
O246     O      0.494090000000     0.042330000000     0.727410000000    -0.453371   
O247     O      0.533540000000     0.491060000000     0.738200000000    -0.452218   
O248     O      0.943620000000     0.003010000000     0.732900000000    -0.458058   
O249     O      0.518680000000     0.302050000000     0.755100000000    -0.448803   
O250     O      0.519560000000     0.209950000000     0.755970000000    -0.449344   
O251     O      0.528020000000     0.255530000000     0.709240000000    -0.447315   
O252     O      0.510480000000     0.256760000000     0.800020000000    -0.455053   
O253     O      0.959000000000     0.250690000000     0.789600000000    -0.449852   
O254     O      0.976380000000     0.260370000000     0.699120000000    -0.451598   
O255     O      0.969200000000     0.209650000000     0.739850000000    -0.451578   
O256     O      0.966370000000     0.301130000000     0.747850000000    -0.450142   
O257     O      0.693880000000     0.020880000000     0.768220000000    -0.451333   
O258     O      0.783520000000     0.019200000000     0.754580000000    -0.452004   
O259     O      0.731970000000     0.019090000000     0.716210000000    -0.453281   
O260     O      0.745690000000     0.021020000000     0.807470000000    -0.450944   
O261     O      0.736260000000     0.468510000000     0.809480000000    -0.446766   
O262     O      0.740350000000     0.466340000000     0.716810000000    -0.447695   
O263     O      0.783490000000     0.466800000000     0.765520000000    -0.450105   
O264     O      0.692900000000     0.468020000000     0.760570000000    -0.449933   
O265     O      0.722740000000     0.052740000000     0.013270000000    -0.44729    
O266     O      0.726050000000     0.461310000000     0.525920000000    -0.445622   
O267     O      0.728630000000     0.013450000000     0.565030000000    -0.454109   
O268     O      0.719910000000     0.500860000000     0.973850000000    -0.449086   
O269     O      0.771570000000     0.010370000000     0.968470000000    -0.453333   
O270     O      0.780740000000     0.506130000000     0.560470000000    -0.452314   
O271     O      0.777160000000     0.462390000000     0.012690000000    -0.452951   
O272     O      0.775410000000     0.053810000000     0.516830000000    -0.456207   
O273     O      0.010140000000     0.222290000000     0.544190000000    -0.451188   
O274     O      0.500070000000     0.215160000000     0.952030000000    -0.44357    
O275     O      0.550270000000     0.216310000000     0.494270000000    -0.449293   
O276     O      0.959830000000     0.221040000000     0.003510000000    -0.447549   
O277     O      0.961600000000     0.273390000000     0.492620000000    -0.448903   
O278     O      0.552550000000     0.269710000000     0.992500000000    -0.452279   
O279     O      0.007310000000     0.267900000000     0.947630000000    -0.458517   
O280     O      0.506970000000     0.275470000000     0.539550000000    -0.450559   
O281     O      0.712800000000     0.257110000000     0.975040000000    -0.447417   
O282     O      0.803830000000     0.259710000000     0.980780000000    -0.446954   
O283     O      0.759370000000     0.212150000000     0.971650000000    -0.451003   
O284     O      0.757060000000     0.303050000000     0.983230000000    -0.4558     
O285     O      0.748800000000     0.296190000000     0.535900000000    -0.448617   
O286     O      0.761870000000     0.205520000000     0.525010000000    -0.453123   
O287     O      0.800240000000     0.256270000000     0.534180000000    -0.453263   
O288     O      0.710350000000     0.244600000000     0.527260000000    -0.450091   
O289     O      0.942110000000     0.008790000000     0.286220000000    -0.452943   
O290     O      0.532460000000     0.504420000000     0.290260000000    -0.456158   
O291     O      0.991020000000     0.552010000000     0.280210000000    -0.449244   
O292     O      0.485010000000     0.961410000000     0.296240000000    -0.449983   
O293     O      0.981820000000     0.952580000000     0.243210000000    -0.456092   
O294     O      0.494090000000     0.542330000000     0.227410000000    -0.453449   
O295     O      0.533540000000     0.991060000000     0.238200000000    -0.452228   
O296     O      0.943620000000     0.503020000000     0.232900000000    -0.458144   
O297     O      0.518680000000     0.802050000000     0.255100000000    -0.448919   
O298     O      0.519560000000     0.709950000000     0.255970000000    -0.449228   
O299     O      0.528020000000     0.755530000000     0.209240000000    -0.447215   
O300     O      0.510480000000     0.756760000000     0.300020000000    -0.455054   
O301     O      0.959000000000     0.750690000000     0.289600000000    -0.449852   
O302     O      0.976380000000     0.760370000000     0.199120000000    -0.451537   
O303     O      0.969200000000     0.709650000000     0.239850000000    -0.451562   
O304     O      0.966370000000     0.801130000000     0.247850000000    -0.45016    
O305     O      0.693880000000     0.520880000000     0.268220000000    -0.451355   
O306     O      0.783520000000     0.519200000000     0.254580000000    -0.452027   
O307     O      0.731970000000     0.519090000000     0.216210000000    -0.453363   
O308     O      0.745690000000     0.521020000000     0.307470000000    -0.450969   
O309     O      0.736260000000     0.968510000000     0.309480000000    -0.446771   
O310     O      0.740350000000     0.966330000000     0.216810000000    -0.447547   
O311     O      0.783490000000     0.966800000000     0.265520000000    -0.450122   
O312     O      0.692900000000     0.968020000000     0.260570000000    -0.449942   
O313     O      0.722740000000     0.552740000000     0.513270000000    -0.447253   
O314     O      0.726050000000     0.961310000000     0.025920000000    -0.445737   
O315     O      0.728630000000     0.513450000000     0.065030000000    -0.454106   
O316     O      0.719910000000     0.000860000000     0.473850000000    -0.449076   
O317     O      0.771570000000     0.510370000000     0.468470000000    -0.453359   
O318     O      0.780740000000     0.006130000000     0.060470000000    -0.452281   
O319     O      0.777160000000     0.962390000000     0.512690000000    -0.453039   
O320     O      0.775410000000     0.553800000000     0.016830000000    -0.456268   
O321     O      0.010140000000     0.722290000000     0.044190000000    -0.451189   
O322     O      0.500070000000     0.715160000000     0.452030000000    -0.443571   
O323     O      0.550270000000     0.716310000000     0.994270000000    -0.4493     
O324     O      0.959830000000     0.721040000000     0.503510000000    -0.447548   
O325     O      0.961600000000     0.773390000000     0.992620000000    -0.448903   
O326     O      0.552550000000     0.769710000000     0.492500000000    -0.452276   
O327     O      0.007310000000     0.767900000000     0.447630000000    -0.458517   
O328     O      0.506970000000     0.775470000000     0.039550000000    -0.45056    
O329     O      0.712800000000     0.757110000000     0.475040000000    -0.447428   
O330     O      0.803830000000     0.759710000000     0.480780000000    -0.446965   
O331     O      0.759370000000     0.712150000000     0.471650000000    -0.451027   
O332     O      0.757060000000     0.803050000000     0.483230000000    -0.455826   
O333     O      0.748800000000     0.796200000000     0.035900000000    -0.448461   
O334     O      0.761870000000     0.705520000000     0.025010000000    -0.453223   
O335     O      0.800240000000     0.756280000000     0.034180000000    -0.453229   
O336     O      0.710350000000     0.744600000000     0.027260000000    -0.450089   
O337     O      0.942110000000     0.008790000000     0.786220000000    -0.452919   
O338     O      0.532460000000     0.504420000000     0.790260000000    -0.456134   
O339     O      0.991020000000     0.552010000000     0.780210000000    -0.449217   
O340     O      0.485010000000     0.961410000000     0.796240000000    -0.449962   
O341     O      0.981820000000     0.952580000000     0.743210000000    -0.45608    
O342     O      0.494090000000     0.542330000000     0.727410000000    -0.453397   
O343     O      0.533540000000     0.991060000000     0.738200000000    -0.452204   
O344     O      0.943620000000     0.503020000000     0.732900000000    -0.458106   
O345     O      0.518680000000     0.802050000000     0.755100000000    -0.44892    
O346     O      0.519560000000     0.709950000000     0.755970000000    -0.449227   
O347     O      0.528020000000     0.755530000000     0.709240000000    -0.447313   
O348     O      0.510480000000     0.756760000000     0.800020000000    -0.455053   
O349     O      0.959000000000     0.750690000000     0.789600000000    -0.449851   
O350     O      0.976380000000     0.760370000000     0.699120000000    -0.451599   
O351     O      0.969200000000     0.709650000000     0.739850000000    -0.451561   
O352     O      0.966370000000     0.801130000000     0.747850000000    -0.450159   
O353     O      0.693880000000     0.520880000000     0.768220000000    -0.451356   
O354     O      0.783520000000     0.519200000000     0.754580000000    -0.452023   
O355     O      0.731970000000     0.519090000000     0.716210000000    -0.453362   
O356     O      0.745690000000     0.521020000000     0.807470000000    -0.450969   
O357     O      0.736260000000     0.968510000000     0.809480000000    -0.446771   
O358     O      0.740350000000     0.966330000000     0.716810000000    -0.447546   
O359     O      0.783490000000     0.966800000000     0.765520000000    -0.450119   
O360     O      0.692900000000     0.968020000000     0.760570000000    -0.449941   
O361     O      0.722740000000     0.552740000000     0.013270000000    -0.447252   
O362     O      0.726050000000     0.961310000000     0.525920000000    -0.445737   
O363     O      0.728630000000     0.513450000000     0.565030000000    -0.454107   
O364     O      0.719910000000     0.000860000000     0.973850000000    -0.449076   
O365     O      0.771570000000     0.510370000000     0.968470000000    -0.453358   
O366     O      0.780740000000     0.006130000000     0.560470000000    -0.452281   
O367     O      0.777160000000     0.962390000000     0.012690000000    -0.453039   
O368     O      0.775410000000     0.553800000000     0.516830000000    -0.456268   
O369     O      0.010140000000     0.722290000000     0.544190000000    -0.451188   
O370     O      0.500070000000     0.715160000000     0.952030000000    -0.443571   
O371     O      0.550270000000     0.716310000000     0.494270000000    -0.4493     
O372     O      0.959830000000     0.721040000000     0.003510000000    -0.44755    
O373     O      0.961600000000     0.773390000000     0.492620000000    -0.448903   
O374     O      0.552550000000     0.769710000000     0.992500000000    -0.452276   
O375     O      0.007310000000     0.767900000000     0.947630000000    -0.458518   
O376     O      0.506970000000     0.775470000000     0.539550000000    -0.450559   
O377     O      0.712800000000     0.757110000000     0.975040000000    -0.447427   
O378     O      0.803830000000     0.759710000000     0.980780000000    -0.446964   
O379     O      0.759370000000     0.712150000000     0.971650000000    -0.451027   
O380     O      0.757060000000     0.803050000000     0.983230000000    -0.455825   
O381     O      0.748800000000     0.796200000000     0.535900000000    -0.448461   
O382     O      0.761870000000     0.705520000000     0.525010000000    -0.453222   
O383     O      0.800240000000     0.756280000000     0.534180000000    -0.453229   
O384     O      0.710350000000     0.744600000000     0.527260000000    -0.450091   


