data_structure

_audit_creation_method RASPA-1.0
_audit_creation_date 2023-5-22
_audit_author_name 'Poobodin Mano'

_cell_length_a    31.2425
_cell_length_b    31.3765
_cell_length_c    41.8086
_cell_angle_alpha 90
_cell_angle_beta  90
_cell_angle_gamma 90
_cell_volume      40984.1

_symmetry_cell_setting          triclinic
_symmetry_space_group_name_Hall 'P 1'
_symmetry_space_group_name_H-M  'P 1'
_symmetry_Int_Tables_number     1

_symmetry_equiv_pos_as_xyz 'x,y,z'

loop_
_atom_site_label
_atom_site_type_symbol
_atom_site_fract_x
_atom_site_fract_y
_atom_site_fract_z
_atom_site_charge
C1       C      0.490220000000     0.838210000000     0.055620000000     0.429009   
C2       C      0.515020000000     0.835190000000     0.435040000000     0.429013   
C3       C      0.421590000000     0.833920000000     0.987220000000     0.426285   
C4       C      0.583280000000     0.839900000000     0.004450000000     0.426494   
C5       C      0.510930000000     0.839240000000     0.183390000000     0.430056   
C6       C      0.503480000000     0.833500000000     0.305280000000     0.42918    
C7       C      0.588540000000     0.842380000000     0.246350000000     0.431077   
C8       C      0.426110000000     0.829620000000     0.241670000000     0.430452   
C9       C      0.845570000000     0.502550000000     0.086880000000     0.430649   
C10      C      0.852190000000     0.506910000000     0.465040000000     0.429607   
C11      C      0.849690000000     0.585390000000     0.026080000000     0.430816   
C12      C      0.848240000000     0.423070000000     0.025250000000     0.431278   
C13      C      0.848600000000     0.527320000000     0.213880000000     0.430262   
C14      C      0.851880000000     0.504520000000     0.334550000000     0.429141   
C15      C      0.838570000000     0.436660000000     0.267230000000     0.42895    
C16      C      0.861510000000     0.596240000000     0.281640000000     0.429247   
C17      C      0.494520000000     0.171760000000     0.060550000000     0.427806   
C18      C      0.513370000000     0.171510000000     0.439120000000     0.428495   
C19      C      0.584740000000     0.178980000000     0.006850000000     0.43035    
C20      C      0.423580000000     0.163790000000     0.992440000000     0.430377   
C21      C      0.507770000000     0.172740000000     0.190260000000     0.428035   
C22      C      0.488870000000     0.172710000000     0.311690000000     0.428613   
C23      C      0.417370000000     0.166170000000     0.243920000000     0.429974   
C24      C      0.578700000000     0.179810000000     0.258430000000     0.43052    
C25      C      0.169140000000     0.513380000000     0.056860000000     0.426234   
C26      C      0.170810000000     0.471990000000     0.438460000000     0.427039   
C27      C      0.159760000000     0.414580000000     0.012640000000     0.429005   
C28      C      0.179670000000     0.570870000000     0.982500000000     0.428583   
C29      C      0.171190000000     0.482460000000     0.308370000000     0.425843   
C30      C      0.171050000000     0.500010000000     0.186610000000     0.425179   
C31      C      0.178070000000     0.410870000000     0.239910000000     0.430413   
C32      C      0.164640000000     0.571460000000     0.254600000000     0.430733   
C33      C      0.751020000000     0.834640000000     0.030010000000     0.429156   
C34      C      0.913160000000     0.843620000000     0.015980000000     0.430779   
C35      C      0.835790000000     0.758730000000     0.527670000000     0.429787   
C36      C      0.827680000000     0.920720000000     0.519340000000     0.428235   
C37      C      0.761280000000     0.839200000000     0.258650000000     0.429294   
C38      C      0.923670000000     0.852810000000     0.253300000000     0.428278   
C39      C      0.848900000000     0.765990000000     0.263100000000     0.427838   
C40      C      0.834410000000     0.926980000000     0.249620000000     0.426628   
C41      C      0.755160000000     0.191090000000     0.521020000000     0.430461   
C42      C      0.912870000000     0.151410000000     0.510130000000     0.428932   
C43      C      0.852710000000     0.250580000000     0.013820000000     0.433082   
C44      C      0.813950000000     0.092630000000     0.016470000000     0.432803   
C45      C      0.830110000000     0.263390000000     0.251390000000     0.429132   
C46      C      0.840430000000     0.101310000000     0.244280000000     0.427809   
C47      C      0.752700000000     0.176800000000     0.250440000000     0.430397   
C48      C      0.915090000000     0.189330000000     0.244610000000     0.430801   
C49      C      0.164940000000     0.241980000000     0.507130000000     0.428096   
C50      C      0.173120000000     0.079950000000     0.498450000000     0.426566   
C51      C      0.249650000000     0.165240000000     0.000540000000     0.435292   
C52      C      0.086720000000     0.157800000000     0.004780000000     0.430846   
C53      C      0.172990000000     0.236970000000     0.235430000000     0.429428   
C54      C      0.157620000000     0.075790000000     0.228300000000     0.430378   
C55      C      0.247440000000     0.148740000000     0.226090000000     0.430177   
C56      C      0.085740000000     0.162580000000     0.236740000000     0.429718   
C57      C      0.247110000000     0.824390000000     0.481680000000     0.428347   
C58      C      0.085220000000     0.821450000000     0.498890000000     0.426899   
C59      C      0.168130000000     0.742460000000     0.987510000000     0.424395   
C60      C      0.163890000000     0.905060000000     0.992890000000     0.423414   
C61      C      0.176760000000     0.741540000000     0.238830000000     0.429608   
C62      C      0.171300000000     0.903350000000     0.231230000000     0.429453   
C63      C      0.254370000000     0.826930000000     0.228490000000     0.4305     
C64      C      0.092480000000     0.820010000000     0.241760000000     0.428141   
C65      C      0.173790000000     0.972590000000     0.258970000000    -0.00974987 
C66      C      0.177360000000     0.969400000000     0.198720000000    -0.0111498  
C67      C      0.141570000000     0.008590000000     0.256540000000    -0.0094501  
C68      C      0.148340000000     0.008920000000     0.196930000000    -0.010596   
C69      C      0.152200000000     0.974410000000     0.465710000000    -0.0110043  
C70      C      0.158960000000     0.970770000000     0.025570000000    -0.0089417  
C71      C      0.180050000000     0.014620000000     0.465330000000    -0.0106767  
C72      C      0.186920000000     0.010710000000     0.025040000000    -0.00875971 
C73      C      0.980830000000     0.197420000000     0.212080000000    -0.00989131 
C74      C      0.985290000000     0.197610000000     0.271810000000    -0.0100412  
C75      C      0.014800000000     0.162630000000     0.210510000000    -0.010397   
C76      C      0.020630000000     0.163880000000     0.270670000000    -0.0107234  
C77      C      0.020240000000     0.159360000000     0.536860000000    -0.0104635  
C78      C      0.017250000000     0.163740000000     0.476500000000    -0.0110768  
C79      C      0.981010000000     0.130370000000     0.036200000000    -0.00979704 
C80      C      0.976950000000     0.135860000000     0.476770000000    -0.0103913  
C81      C      0.020340000000     0.820720000000     0.217150000000    -0.0101361  
C82      C      0.028120000000     0.818140000000     0.276900000000    -0.0108784  
C83      C      0.989410000000     0.858060000000     0.220390000000    -0.0101152  
C84      C      0.994890000000     0.854020000000     0.280090000000    -0.0110256  
C85      C      0.820170000000     0.991500000000     0.216200000000    -0.0115018  
C86      C      0.826150000000     0.996850000000     0.275940000000    -0.00960931 
C87      C      0.845630000000     0.033610000000     0.212990000000    -0.0115717  
C88      C      0.856560000000     0.034160000000     0.272460000000    -0.00984296 
C89      C      0.975820000000     0.848940000000     0.479710000000    -0.0104231  
C90      C      0.986190000000     0.849480000000     0.039210000000    -0.0106078  
C91      C      0.011960000000     0.816430000000     0.476280000000    -0.010729   
C92      C      0.022940000000     0.817390000000     0.035770000000    -0.0109032  
C93      C      0.800730000000     0.026760000000     0.047570000000    -0.00939604 
C94      C      0.794530000000     0.025490000000     0.488130000000    -0.0104632  
C95      C      0.832900000000     0.990340000000     0.046640000000    -0.0102341  
C96      C      0.824490000000     0.986700000000     0.486550000000    -0.0112818  
C97      C      0.149250000000     0.672350000000     0.220520000000    -0.009262   
C98      C      0.209830000000     0.676420000000     0.260590000000    -0.009969   
C99      C      0.127660000000     0.638180000000     0.241000000000    -0.00978489 
C100     C      0.190460000000     0.638640000000     0.278650000000    -0.00855202 
C101     C      0.154020000000     0.347630000000     0.210350000000    -0.00899474 
C102     C      0.217060000000     0.343370000000     0.247700000000    -0.0092594  
C103     C      0.138150000000     0.304520000000     0.222340000000    -0.0100562  
C104     C      0.199310000000     0.301970000000     0.261870000000    -0.00939694 
C105     C      0.218560000000     0.638180000000     0.490630000000    -0.0101446  
C106     C      0.156770000000     0.634820000000     0.452370000000    -0.00847634 
C107     C      0.197370000000     0.675290000000     0.008280000000    -0.0028334  
C108     C      0.137960000000     0.675540000000     0.966930000000    -0.0103958  
C109     C      0.198030000000     0.307400000000     0.527440000000    -0.0108164  
C110     C      0.136680000000     0.310140000000     0.487770000000    -0.00881689 
C111     C      0.182590000000     0.349710000000     0.041760000000    -0.00840424 
C112     C      0.118420000000     0.348470000000     0.005670000000    -0.00282158 
C113     C      0.211390000000     0.483430000000     0.359370000000    -0.0111531  
C114     C      0.130320000000     0.481760000000     0.359070000000    -0.011089   
C115     C      0.211270000000     0.454580000000     0.388930000000    -0.0105341  
C116     C      0.131560000000     0.453170000000     0.388700000000    -0.010126   
C117     C      0.211180000000     0.502640000000     0.135550000000    -0.0111945  
C118     C      0.130180000000     0.499320000000     0.135880000000    -0.0112121  
C119     C      0.208800000000     0.532160000000     0.106460000000    -0.0100437  
C120     C      0.129160000000     0.529170000000     0.106890000000    -0.0104992  
C121     C      0.350560000000     0.131080000000     0.260040000000    -0.0100392  
C122     C      0.349660000000     0.194660000000     0.222680000000    -0.0091559  
C123     C      0.313820000000     0.111290000000     0.241090000000    -0.00813406 
C124     C      0.315480000000     0.172460000000     0.202340000000    -0.0100119  
C125     C      0.645090000000     0.218190000000     0.246080000000    -0.00921624 
C126     C      0.645320000000     0.157120000000     0.285180000000    -0.00917367 
C127     C      0.683350000000     0.198800000000     0.228780000000    -0.0086844  
C128     C      0.688240000000     0.141790000000     0.271490000000    -0.0101286  
C129     C      0.314150000000     0.201870000000     0.981210000000    -0.0102368  
C130     C      0.319070000000     0.141930000000     0.021550000000    -0.0078831  
C131     C      0.356610000000     0.187180000000     0.466510000000    -0.00913533 
C132     C      0.357540000000     0.123960000000     0.503580000000    -0.00930359 
C133     C      0.686870000000     0.178500000000     0.048500000000    -0.00923393 
C134     C      0.691040000000     0.230240000000     0.502790000000    -0.00776239 
C135     C      0.651450000000     0.153830000000     0.031320000000    -0.00894401 
C136     C      0.651880000000     0.209490000000     0.487270000000    -0.01033    
C137     C      0.483410000000     0.212270000000     0.362980000000    -0.0104795  
C138     C      0.483360000000     0.132340000000     0.362640000000    -0.0105531  
C139     C      0.518990000000     0.211770000000     0.388150000000    -0.0104931  
C140     C      0.518900000000     0.131850000000     0.387860000000    -0.0105179  
C141     C      0.515320000000     0.212810000000     0.139330000000    -0.0106179  
C142     C      0.518450000000     0.132910000000     0.139530000000    -0.010594   
C143     C      0.483870000000     0.211660000000     0.111260000000    -0.0107327  
C144     C      0.486960000000     0.131750000000     0.111500000000    -0.0107036  
C145     C      0.868630000000     0.324430000000     0.273070000000    -0.00956529 
C146     C      0.812290000000     0.334730000000     0.230560000000    -0.0090304  
C147     C      0.855230000000     0.366140000000     0.288790000000    -0.00955981 
C148     C      0.796880000000     0.375150000000     0.247730000000    -0.00945788 
C149     C      0.820310000000     0.701890000000     0.289010000000    -0.0102092  
C150     C      0.876320000000     0.696220000000     0.245450000000    -0.00939081 
C151     C      0.841380000000     0.664710000000     0.306600000000    -0.00841402 
C152     C      0.899170000000     0.661560000000     0.264900000000    -0.010158   
C153     C      0.872940000000     0.355480000000     0.048630000000    -0.00958888 
C154     C      0.816580000000     0.356790000000     0.505220000000    -0.00855873 
C155     C      0.890890000000     0.313950000000     0.034590000000    -0.00946896 
C156     C      0.839290000000     0.319960000000     0.488510000000    -0.00977233 
C157     C      0.860550000000     0.693620000000     0.054960000000    -0.00878901 
C158     C      0.803690000000     0.690540000000     0.012160000000    -0.00210525 
C159     C      0.882240000000     0.654350000000     0.540370000000    -0.00925251 
C160     C      0.823410000000     0.649600000000     0.499200000000    -0.00933248 
C161     C      0.812520000000     0.490540000000     0.384780000000    -0.0100885  
C162     C      0.892660000000     0.487860000000     0.384060000000    -0.0104616  
C163     C      0.813760000000     0.518930000000     0.414230000000    -0.0100132  
C164     C      0.894230000000     0.514250000000     0.414930000000    -0.0109016  
C165     C      0.808320000000     0.539870000000     0.163410000000    -0.0107898  
C166     C      0.887900000000     0.530520000000     0.162590000000    -0.00924032 
C167     C      0.803720000000     0.505490000000     0.137450000000    -0.0107563  
C168     C      0.883460000000     0.494540000000     0.138440000000    -0.00997486 
C169     C      0.323620000000     0.805920000000     0.204910000000    -0.00952648 
C170     C      0.317600000000     0.870450000000     0.240340000000    -0.00776061 
C171     C      0.361530000000     0.789950000000     0.225020000000    -0.00998781 
C172     C      0.356070000000     0.855760000000     0.259740000000    -0.00962936 
C173     C      0.696600000000     0.800620000000     0.241660000000    -0.00913445 
C174     C      0.691890000000     0.860220000000     0.281930000000    -0.00977026 
C175     C      0.657300000000     0.818090000000     0.224460000000    -0.00917703 
C176     C      0.654260000000     0.879510000000     0.263370000000    -0.00937568 
C177     C      0.313930000000     0.786920000000     0.493940000000    -0.00803461 
C178     C      0.313170000000     0.845840000000     0.453310000000    -0.00930719 
C179     C      0.355000000000     0.804510000000     0.008490000000    -0.00438238 
C180     C      0.353380000000     0.865320000000     0.968730000000    -0.00970092 
C181     C      0.687310000000     0.792420000000     0.017190000000    -0.00308061 
C182     C      0.680940000000     0.859390000000     0.049810000000    -0.00946051 
C183     C      0.654230000000     0.809060000000     0.493560000000    -0.0103933  
C184     C      0.647420000000     0.876660000000     0.526010000000    -0.0107568  
C185     C      0.494070000000     0.872160000000     0.356370000000    -0.0102455  
C186     C      0.499240000000     0.792120000000     0.355910000000    -0.0109908  
C187     C      0.525720000000     0.873950000000     0.384070000000    -0.0101787  
C188     C      0.528890000000     0.794200000000     0.385140000000    -0.0104643  
C189     C      0.511110000000     0.881200000000     0.132910000000    -0.0107604  
C190     C      0.518940000000     0.801430000000     0.131810000000    -0.0100921  
C191     C      0.477640000000     0.878260000000     0.106120000000    -0.0108118  
C192     C      0.483830000000     0.798710000000     0.106630000000    -0.00971135 
C193     C      0.490220000000     0.838210000000     0.555620000000     0.429738   
C194     C      0.515020000000     0.835190000000     0.935040000000     0.428501   
C195     C      0.421590000000     0.833920000000     0.487220000000     0.426866   
C196     C      0.583280000000     0.839900000000     0.504450000000     0.427086   
C197     C      0.510930000000     0.839240000000     0.683400000000     0.430029   
C198     C      0.503480000000     0.833500000000     0.805280000000     0.429182   
C199     C      0.588540000000     0.842380000000     0.746350000000     0.43108    
C200     C      0.426110000000     0.829620000000     0.741670000000     0.430455   
C201     C      0.845570000000     0.502550000000     0.586880000000     0.430443   
C202     C      0.852190000000     0.506910000000     0.965040000000     0.430035   
C203     C      0.849690000000     0.585390000000     0.526080000000     0.43044    
C204     C      0.848240000000     0.423070000000     0.525250000000     0.430471   
C205     C      0.848600000000     0.527320000000     0.713880000000     0.430154   
C206     C      0.851880000000     0.504520000000     0.834550000000     0.429132   
C207     C      0.838570000000     0.436660000000     0.767240000000     0.42897    
C208     C      0.861510000000     0.596240000000     0.781640000000     0.429248   
C209     C      0.494520000000     0.171760000000     0.560550000000     0.4279     
C210     C      0.513370000000     0.171510000000     0.939120000000     0.428589   
C211     C      0.584740000000     0.178980000000     0.506850000000     0.430317   
C212     C      0.423580000000     0.163790000000     0.492440000000     0.430345   
C213     C      0.507770000000     0.172740000000     0.690260000000     0.428039   
C214     C      0.488870000000     0.172710000000     0.811690000000     0.428616   
C215     C      0.417370000000     0.166170000000     0.743920000000     0.429979   
C216     C      0.578700000000     0.179810000000     0.758430000000     0.430525   
C217     C      0.169140000000     0.513380000000     0.556860000000     0.42694    
C218     C      0.170810000000     0.471990000000     0.938460000000     0.426528   
C219     C      0.159760000000     0.414580000000     0.512640000000     0.429216   
C220     C      0.179670000000     0.570870000000     0.482500000000     0.429582   
C221     C      0.171190000000     0.482460000000     0.808370000000     0.425854   
C222     C      0.171050000000     0.500010000000     0.686610000000     0.425176   
C223     C      0.178070000000     0.410870000000     0.739900000000     0.430382   
C224     C      0.164640000000     0.571460000000     0.754600000000     0.430741   
C225     C      0.751020000000     0.834640000000     0.530010000000     0.429381   
C226     C      0.913160000000     0.843620000000     0.515980000000     0.427615   
C227     C      0.835790000000     0.758730000000     0.027670000000     0.429821   
C228     C      0.827680000000     0.920720000000     0.019340000000     0.431656   
C229     C      0.761280000000     0.839200000000     0.758650000000     0.429303   
C230     C      0.923670000000     0.852810000000     0.753300000000     0.42829    
C231     C      0.848900000000     0.765990000000     0.763100000000     0.427847   
C232     C      0.834410000000     0.926980000000     0.749620000000     0.426638   
C233     C      0.755160000000     0.191090000000     0.021020000000     0.434452   
C234     C      0.912870000000     0.151410000000     0.010130000000     0.432659   
C235     C      0.852710000000     0.250580000000     0.513820000000     0.429505   
C236     C      0.813950000000     0.092630000000     0.516470000000     0.429387   
C237     C      0.830110000000     0.263390000000     0.751390000000     0.429112   
C238     C      0.840430000000     0.101310000000     0.744280000000     0.427798   
C239     C      0.752700000000     0.176800000000     0.750440000000     0.430645   
C240     C      0.915090000000     0.189330000000     0.744610000000     0.430785   
C241     C      0.164940000000     0.241980000000     0.007130000000     0.431671   
C242     C      0.173120000000     0.079950000000     0.998450000000     0.422887   
C243     C      0.249650000000     0.165240000000     0.500540000000     0.428997   
C244     C      0.086720000000     0.157800000000     0.504780000000     0.427329   
C245     C      0.172990000000     0.236970000000     0.735430000000     0.429439   
C246     C      0.157620000000     0.075790000000     0.728300000000     0.430649   
C247     C      0.247440000000     0.148740000000     0.726090000000     0.430191   
C248     C      0.085740000000     0.162580000000     0.736740000000     0.429734   
C249     C      0.247110000000     0.824390000000     0.981680000000     0.424401   
C250     C      0.085220000000     0.821450000000     0.998890000000     0.421046   
C251     C      0.168130000000     0.742460000000     0.487510000000     0.427935   
C252     C      0.163890000000     0.905060000000     0.492880000000     0.427079   
C253     C      0.176760000000     0.741540000000     0.738830000000     0.429613   
C254     C      0.171300000000     0.903350000000     0.731230000000     0.429463   
C255     C      0.254370000000     0.826930000000     0.728490000000     0.430494   
C256     C      0.092480000000     0.820010000000     0.741760000000     0.428152   
C257     C      0.173790000000     0.972590000000     0.758970000000    -0.00975496 
C258     C      0.177360000000     0.969400000000     0.698720000000    -0.0111529  
C259     C      0.141570000000     0.008590000000     0.756540000000    -0.00941655 
C260     C      0.148340000000     0.008920000000     0.696930000000    -0.0105598  
C261     C      0.152200000000     0.974410000000     0.965710000000    -0.0112276  
C262     C      0.158960000000     0.970770000000     0.525570000000    -0.0107062  
C263     C      0.180050000000     0.014620000000     0.965330000000    -0.0109738  
C264     C      0.186920000000     0.010710000000     0.525040000000    -0.0104509  
C265     C      0.980830000000     0.197420000000     0.712080000000    -0.00981542 
C266     C      0.985290000000     0.197610000000     0.771810000000    -0.0100463  
C267     C      0.014800000000     0.162630000000     0.710510000000    -0.0104119  
C268     C      0.020630000000     0.163880000000     0.770670000000    -0.0107121  
C269     C      0.020240000000     0.159360000000     0.036860000000    -0.010178   
C270     C      0.017250000000     0.163740000000     0.976500000000    -0.0127989  
C271     C      0.981010000000     0.130370000000     0.536200000000    -0.0100518  
C272     C      0.976950000000     0.135860000000     0.976770000000    -0.0121221  
C273     C      0.020340000000     0.820720000000     0.717150000000    -0.0101269  
C274     C      0.028120000000     0.818140000000     0.776900000000    -0.0108718  
C275     C      0.989410000000     0.858060000000     0.720390000000    -0.0101085  
C276     C      0.994890000000     0.854020000000     0.780090000000    -0.0110158  
C277     C      0.820170000000     0.991500000000     0.716200000000    -0.0115059  
C278     C      0.826150000000     0.996850000000     0.775940000000    -0.00961235 
C279     C      0.845630000000     0.033610000000     0.712990000000    -0.0115402  
C280     C      0.856560000000     0.034160000000     0.772460000000    -0.00982923 
C281     C      0.975820000000     0.848940000000     0.979710000000    -0.0120751  
C282     C      0.986190000000     0.849480000000     0.539210000000    -0.010983   
C283     C      0.011960000000     0.816430000000     0.976280000000    -0.0127965  
C284     C      0.022940000000     0.817390000000     0.535770000000    -0.010827   
C285     C      0.800730000000     0.026760000000     0.547570000000    -0.00963626 
C286     C      0.794530000000     0.025490000000     0.988130000000    -0.012146   
C287     C      0.832900000000     0.990340000000     0.546640000000    -0.0104977  
C288     C      0.824490000000     0.986700000000     0.986550000000    -0.0131171  
C289     C      0.149250000000     0.672350000000     0.720520000000    -0.00927108 
C290     C      0.209830000000     0.676420000000     0.760590000000    -0.00998833 
C291     C      0.127660000000     0.638180000000     0.741000000000    -0.0097753  
C292     C      0.190460000000     0.638640000000     0.778650000000    -0.00853448 
C293     C      0.154020000000     0.347630000000     0.710350000000    -0.0089918  
C294     C      0.217060000000     0.343370000000     0.747700000000    -0.00923825 
C295     C      0.138150000000     0.304520000000     0.722340000000    -0.0100496  
C296     C      0.199310000000     0.301970000000     0.761870000000    -0.00939437 
C297     C      0.218560000000     0.638180000000     0.990630000000    -0.017261   
C298     C      0.156770000000     0.634820000000     0.952370000000    -0.00893642 
C299     C      0.197370000000     0.675290000000     0.508280000000    -0.00898569 
C300     C      0.137960000000     0.675540000000     0.466930000000    -0.0105547  
C301     C      0.198030000000     0.307400000000     0.027440000000    -0.0109639  
C302     C      0.136680000000     0.310140000000     0.987770000000    -0.0149123  
C303     C      0.182590000000     0.349710000000     0.541760000000    -0.00881417 
C304     C      0.118420000000     0.348470000000     0.505670000000    -0.00990324 
C305     C      0.211390000000     0.483430000000     0.859370000000    -0.0111525  
C306     C      0.130320000000     0.481760000000     0.859070000000    -0.0110785  
C307     C      0.211270000000     0.454580000000     0.888940000000    -0.0105224  
C308     C      0.131560000000     0.453170000000     0.888700000000    -0.0101388  
C309     C      0.211180000000     0.502640000000     0.635550000000    -0.0112052  
C310     C      0.130180000000     0.499320000000     0.635880000000    -0.0112328  
C311     C      0.208800000000     0.532160000000     0.606460000000    -0.00998552 
C312     C      0.129160000000     0.529170000000     0.606890000000    -0.0104288  
C313     C      0.350560000000     0.131080000000     0.760040000000    -0.0100388  
C314     C      0.349660000000     0.194660000000     0.722680000000    -0.00915205 
C315     C      0.313820000000     0.111290000000     0.741090000000    -0.0081064  
C316     C      0.315480000000     0.172460000000     0.702340000000    -0.0100001  
C317     C      0.645090000000     0.218190000000     0.746080000000    -0.00920666 
C318     C      0.645320000000     0.157120000000     0.785180000000    -0.00916064 
C319     C      0.683350000000     0.198800000000     0.728780000000    -0.00867111 
C320     C      0.688240000000     0.141790000000     0.771490000000    -0.0101202  
C321     C      0.314150000000     0.201870000000     0.481210000000    -0.0103449  
C322     C      0.319070000000     0.141930000000     0.521550000000    -0.00897743 
C323     C      0.356610000000     0.187180000000     0.966510000000    -0.00933464 
C324     C      0.357540000000     0.123960000000     0.003580000000    -0.00372477 
C325     C      0.686870000000     0.178500000000     0.548500000000    -0.00983991 
C326     C      0.691040000000     0.230240000000     0.002790000000    -0.000371951
C327     C      0.651450000000     0.153830000000     0.531320000000    -0.00859941 
C328     C      0.651880000000     0.209490000000     0.987270000000    -0.0166748  
C329     C      0.483410000000     0.212270000000     0.862980000000    -0.0104689  
C330     C      0.483360000000     0.132340000000     0.862640000000    -0.0105653  
C331     C      0.518990000000     0.211770000000     0.888150000000    -0.0105046  
C332     C      0.518900000000     0.131850000000     0.887860000000    -0.0104629  
C333     C      0.515320000000     0.212810000000     0.639330000000    -0.0106305  
C334     C      0.518450000000     0.132910000000     0.639530000000    -0.0105871  
C335     C      0.483870000000     0.211660000000     0.611260000000    -0.0106754  
C336     C      0.486960000000     0.131750000000     0.611500000000    -0.0107125  
C337     C      0.868630000000     0.324430000000     0.773070000000    -0.00956271 
C338     C      0.812290000000     0.334730000000     0.730560000000    -0.00903112 
C339     C      0.855230000000     0.366140000000     0.788790000000    -0.00955471 
C340     C      0.796880000000     0.375150000000     0.747730000000    -0.00943629 
C341     C      0.820310000000     0.701890000000     0.789010000000    -0.0102081  
C342     C      0.876320000000     0.696220000000     0.745450000000    -0.00938543 
C343     C      0.841380000000     0.664710000000     0.806600000000    -0.00839844 
C344     C      0.899170000000     0.661560000000     0.764900000000    -0.0101501  
C345     C      0.872940000000     0.355480000000     0.548630000000    -0.0100445  
C346     C      0.816580000000     0.356790000000     0.005220000000    -0.00142894 
C347     C      0.890890000000     0.313950000000     0.534590000000    -0.00932973 
C348     C      0.839290000000     0.319960000000     0.988510000000    -0.0158662  
C349     C      0.860550000000     0.693620000000     0.554960000000    -0.00929487 
C350     C      0.803690000000     0.690540000000     0.512160000000    -0.00922254 
C351     C      0.882240000000     0.654350000000     0.040370000000    -0.00955509 
C352     C      0.823410000000     0.649600000000     0.999200000000    -0.0156565  
C353     C      0.812520000000     0.490540000000     0.884780000000    -0.010113   
C354     C      0.892660000000     0.487860000000     0.884060000000    -0.0104766  
C355     C      0.813760000000     0.518930000000     0.914230000000    -0.0099787  
C356     C      0.894230000000     0.514250000000     0.914930000000    -0.0108745  
C357     C      0.808320000000     0.539870000000     0.663410000000    -0.0107839  
C358     C      0.887900000000     0.530520000000     0.662590000000    -0.00922977 
C359     C      0.803720000000     0.505490000000     0.637450000000    -0.0107483  
C360     C      0.883460000000     0.494540000000     0.638440000000    -0.00997349 
C361     C      0.323620000000     0.805920000000     0.704910000000    -0.0094742  
C362     C      0.317600000000     0.870450000000     0.740340000000    -0.00778584 
C363     C      0.361530000000     0.789950000000     0.725020000000    -0.0100008  
C364     C      0.356070000000     0.855760000000     0.759740000000    -0.00963535 
C365     C      0.696600000000     0.800620000000     0.741660000000    -0.00912405 
C366     C      0.691890000000     0.860220000000     0.781930000000    -0.009753   
C367     C      0.657300000000     0.818090000000     0.724460000000    -0.00917272 
C368     C      0.654260000000     0.879510000000     0.763370000000    -0.00937756 
C369     C      0.313930000000     0.786920000000     0.993940000000    -0.0153844  
C370     C      0.313170000000     0.845840000000     0.953310000000    -0.00990521 
C371     C      0.355000000000     0.804510000000     0.508490000000    -0.010781   
C372     C      0.353380000000     0.865320000000     0.468730000000    -0.00996238 
C373     C      0.687310000000     0.792420000000     0.517190000000    -0.00636418 
C374     C      0.680940000000     0.859390000000     0.549810000000    -0.009836   
C375     C      0.654230000000     0.809060000000     0.993560000000    -0.0156257  
C376     C      0.647420000000     0.876660000000     0.026010000000    -0.0109734  
C377     C      0.494070000000     0.872160000000     0.856370000000    -0.010243   
C378     C      0.499240000000     0.792120000000     0.855910000000    -0.0109818  
C379     C      0.525720000000     0.873950000000     0.884070000000    -0.0101743  
C380     C      0.528890000000     0.794200000000     0.885140000000    -0.0104751  
C381     C      0.511110000000     0.881200000000     0.632910000000    -0.0107906  
C382     C      0.518940000000     0.801430000000     0.631810000000    -0.0101328  
C383     C      0.477640000000     0.878260000000     0.606120000000    -0.0107457  
C384     C      0.483830000000     0.798710000000     0.606630000000    -0.00963916 
H1       H      0.211140000000     0.980190000000     0.196610000000     0.0388447  
H2       H      0.206330000000     0.986540000000     0.261600000000     0.0397744  
H3       H      0.143130000000     0.028130000000     0.278670000000     0.0436725  
H4       H      0.170470000000     0.948530000000     0.177870000000     0.0432889  
H5       H      0.157870000000     0.028590000000     0.176000000000     0.0428304  
H6       H      0.114920000000     0.997930000000     0.192970000000     0.0384446  
H7       H      0.166720000000     0.953930000000     0.280940000000     0.0434629  
H8       H      0.108940000000     0.994500000000     0.255170000000     0.0390968  
H9       H      0.125350000000     0.980660000000     0.030220000000     0.0401154  
H10      H      0.118040000000     0.984370000000     0.965920000000     0.0391605  
H11      H      0.169620000000     0.035280000000     0.445190000000     0.0426927  
H12      H      0.169290000000     0.950220000000     0.045800000000     0.0433603  
H13      H      0.182000000000     0.028510000000     0.047720000000     0.0435908  
H14      H      0.220990000000     0.000490000000     0.524320000000     0.0389444  
H15      H      0.157940000000     0.956420000000     0.443220000000     0.0432872  
H16      H      0.213750000000     0.004950000000     0.460790000000     0.0390926  
H17      H      0.000740000000     0.229540000000     0.272370000000     0.037692   
H18      H      0.997080000000     0.228880000000     0.210360000000     0.0383941  
H19      H      0.033030000000     0.166380000000     0.187860000000     0.0438269  
H20      H      0.966770000000     0.193850000000     0.294320000000     0.0429438  
H21      H      0.043110000000     0.169480000000     0.290840000000     0.0431302  
H22      H      0.005660000000     0.132080000000     0.274260000000     0.0398597  
H23      H      0.959100000000     0.194220000000     0.191180000000     0.0432163  
H24      H      0.998400000000     0.131190000000     0.209710000000     0.0403786  
H25      H      0.007100000000     0.197660000000     0.475080000000     0.0395708  
H26      H      0.009400000000     0.192590000000     0.541340000000     0.0406545  
H27      H      0.963080000000     0.134050000000     0.058980000000     0.0435453  
H28      H      0.035770000000     0.156500000000     0.454460000000     0.0436353  
H29      H      0.956210000000     0.144860000000     0.456260000000     0.0427266  
H30      H      0.986930000000     0.102130000000     0.973400000000     0.038077   
H31      H      0.040960000000     0.149620000000     0.057200000000     0.0430652  
H32      H      0.992280000000     0.096790000000     0.034840000000     0.0391081  
H33      H      0.011120000000     0.787170000000     0.279350000000     0.0389204  
H34      H      0.001370000000     0.790740000000     0.216370000000     0.0393763  
H35      H      0.967190000000     0.858140000000     0.199640000000     0.0437238  
H36      H      0.051400000000     0.820580000000     0.296910000000     0.0432476  
H37      H      0.976390000000     0.849370000000     0.302520000000     0.0431252  
H38      H      0.012370000000     0.884780000000     0.282060000000     0.0390429  
H39      H      0.037800000000     0.823620000000     0.194100000000     0.0434762  
H40      H      0.008250000000     0.888110000000     0.219500000000     0.039758   
H41      H      0.793030000000     0.009430000000     0.278460000000     0.0394373  
H42      H      0.785500000000     0.999300000000     0.214920000000     0.0386804  
H43      H      0.832200000000     0.052490000000     0.192860000000     0.042456   
H44      H      0.834110000000     0.979480000000     0.298320000000     0.0438195  
H45      H      0.855000000000     0.053710000000     0.294580000000     0.0439434  
H46      H      0.889740000000     0.021580000000     0.270390000000     0.0404668  
H47      H      0.827810000000     0.970600000000     0.195510000000     0.0426912  
H48      H      0.879240000000     0.025450000000     0.206770000000     0.0387233  
H49      H      0.000130000000     0.882090000000     0.039590000000     0.0398899  
H50      H      0.989630000000     0.881320000000     0.476490000000     0.039467   
H51      H      0.027870000000     0.821240000000     0.452790000000     0.0436224  
H52      H      0.970010000000     0.844090000000     0.062530000000     0.0431121  
H53      H      0.046770000000     0.823440000000     0.054970000000     0.0433062  
H54      H      0.009740000000     0.784850000000     0.039470000000     0.0396972  
H55      H      0.952230000000     0.843740000000     0.460210000000     0.0435643  
H56      H      0.997580000000     0.784000000000     0.476220000000     0.0396718  
H57      H      0.761010000000     0.013600000000     0.488980000000     0.0380343  
H58      H      0.768130000000     0.012930000000     0.050230000000     0.0383069  
H59      H      0.829700000000     0.971700000000     0.069120000000     0.0439466  
H60      H      0.798190000000     0.044610000000     0.465930000000     0.043222   
H61      H      0.813710000000     0.965470000000     0.466840000000     0.0430317  
H62      H      0.857150000000     0.998190000000     0.480440000000     0.0400504  
H63      H      0.807070000000     0.046920000000     0.068900000000     0.0431283  
H64      H      0.865700000000     0.004100000000     0.046110000000     0.0417099  
H65      H      0.235190000000     0.663890000000     0.244480000000     0.0396366  
H66      H      0.168660000000     0.656470000000     0.201660000000     0.041822   
H67      H      0.107950000000     0.617270000000     0.225340000000     0.040468   
H68      H      0.225550000000     0.698410000000     0.277840000000     0.0415478  
H69      H      0.216460000000     0.618320000000     0.288550000000     0.0404923  
H70      H      0.171970000000     0.651540000000     0.299210000000     0.0387922  
H71      H      0.124120000000     0.691940000000     0.208680000000     0.0403754  
H72      H      0.106260000000     0.654050000000     0.258600000000     0.041049   
H73      H      0.240120000000     0.335270000000     0.228370000000     0.0407032  
H74      H      0.173110000000     0.342070000000     0.188290000000     0.0385732  
H75      H      0.123450000000     0.286690000000     0.202130000000     0.0417028  
H76      H      0.234400000000     0.361280000000     0.266670000000     0.0396342  
H77      H      0.226400000000     0.281500000000     0.269810000000     0.0388687  
H78      H      0.179400000000     0.309840000000     0.283110000000     0.0420713  
H79      H      0.126180000000     0.367820000000     0.203590000000     0.0409035  
H80      H      0.112450000000     0.310360000000     0.240220000000     0.0395178  
H81      H      0.176150000000     0.644210000000     0.431210000000     0.0381483  
H82      H      0.240430000000     0.651270000000     0.472080000000     0.040128   
H83      H      0.222710000000     0.695990000000     0.018730000000     0.0373667  
H84      H      0.130480000000     0.613870000000     0.443700000000     0.0405506  
H85      H      0.124090000000     0.695620000000     0.947610000000     0.0413592  
H86      H      0.111160000000     0.666170000000     0.982960000000     0.0396955  
H87      H      0.237710000000     0.619130000000     0.507920000000     0.0402108  
H88      H      0.177550000000     0.662400000000     0.028150000000     0.0422253  
H89      H      0.156060000000     0.321680000000     0.467200000000     0.0429366  
H90      H      0.224770000000     0.314490000000     0.510720000000     0.0390975  
H91      H      0.210610000000     0.369370000000     0.048960000000     0.0409307  
H92      H      0.109820000000     0.290550000000     0.478280000000     0.0385809  
H93      H      0.099080000000     0.367990000000     0.488790000000     0.0412092  
H94      H      0.097120000000     0.336800000000     0.025110000000     0.0397634  
H95      H      0.211320000000     0.286970000000     0.046800000000     0.0415312  
H96      H      0.164250000000     0.342250000000     0.063850000000     0.0376911  
H97      H      0.125070000000     0.515170000000     0.367020000000     0.040741   
H98      H      0.215110000000     0.517000000000     0.367430000000     0.0405277  
H99      H      0.240160000000     0.461470000000     0.403560000000     0.043006   
H100     H      0.102410000000     0.472350000000     0.344170000000     0.0432849  
H101     H      0.102240000000     0.458640000000     0.403170000000     0.0431888  
H102     H      0.130980000000     0.419440000000     0.380530000000     0.0377992  
H103     H      0.239840000000     0.475280000000     0.344630000000     0.0435156  
H104     H      0.213250000000     0.420900000000     0.380760000000     0.0383545  
H105     H      0.127110000000     0.465960000000     0.127180000000     0.040183   
H106     H      0.216980000000     0.469610000000     0.126950000000     0.0407399  
H107     H      0.237990000000     0.527850000000     0.091620000000     0.0432791  
H108     H      0.101730000000     0.506270000000     0.150970000000     0.0434473  
H109     H      0.100170000000     0.522190000000     0.092400000000     0.0427407  
H110     H      0.126680000000     0.562520000000     0.115730000000     0.038281   
H111     H      0.239120000000     0.512150000000     0.150400000000     0.043143   
H112     H      0.208790000000     0.565620000000     0.115260000000     0.0376195  
H113     H      0.333560000000     0.216630000000     0.239740000000     0.0417185  
H114     H      0.336680000000     0.147640000000     0.281150000000     0.0406292  
H115     H      0.292500000000     0.093110000000     0.257470000000     0.0397419  
H116     H      0.370750000000     0.213860000000     0.206780000000     0.0394329  
H117     H      0.295100000000     0.196940000000     0.190540000000     0.0401207  
H118     H      0.331700000000     0.153270000000     0.183540000000     0.0406215  
H119     H      0.371770000000     0.105380000000     0.269250000000     0.0413419  
H120     H      0.327820000000     0.088250000000     0.223810000000     0.0383616  
H121     H      0.652260000000     0.176660000000     0.306750000000     0.0377602  
H122     H      0.656840000000     0.241460000000     0.264130000000     0.0414313  
H123     H      0.702120000000     0.224800000000     0.217290000000     0.0391982  
H124     H      0.626110000000     0.129220000000     0.293180000000     0.0402246  
H125     H      0.709250000000     0.130810000000     0.291330000000     0.0404752  
H126     H      0.681800000000     0.113650000000     0.256060000000     0.0389059  
H127     H      0.624750000000     0.235360000000     0.228430000000     0.0400925  
H128     H      0.671600000000     0.176950000000     0.209760000000     0.0428706  
H129     H      0.330660000000     0.162440000000     0.041450000000     0.042812   
H130     H      0.321160000000     0.228600000000     0.997860000000     0.0375686  
H131     H      0.375650000000     0.215410000000     0.458990000000     0.040578   
H132     H      0.300390000000     0.115080000000     0.031940000000     0.040043   
H133     H      0.378060000000     0.105960000000     0.020650000000     0.04024    
H134     H      0.345960000000     0.101640000000     0.484810000000     0.0411442  
H135     H      0.293040000000     0.214700000000     0.462070000000     0.0411005  
H136     H      0.349090000000     0.168640000000     0.444550000000     0.037891   
H137     H      0.679670000000     0.257830000000     0.517150000000     0.037749   
H138     H      0.671890000000     0.202510000000     0.064560000000     0.0407568  
H139     H      0.629930000000     0.138990000000     0.049380000000     0.0380001  
H140     H      0.712840000000     0.242820000000     0.483980000000     0.0386887  
H141     H      0.631320000000     0.234570000000     0.476400000000     0.040463   
H142     H      0.663280000000     0.188740000000     0.467460000000     0.0407398  
H143     H      0.706070000000     0.156010000000     0.063260000000     0.0402164  
H144     H      0.666200000000     0.128000000000     0.016810000000     0.0439916  
H145     H      0.452080000000     0.130380000000     0.375260000000     0.0388064  
H146     H      0.452110000000     0.214210000000     0.375580000000     0.0394453  
H147     H      0.516120000000     0.240620000000     0.403410000000     0.0436645  
H148     H      0.486320000000     0.103530000000     0.347360000000     0.0435213  
H149     H      0.515390000000     0.102910000000     0.402960000000     0.0429663  
H150     H      0.550210000000     0.129860000000     0.375300000000     0.039309   
H151     H      0.486850000000     0.241240000000     0.347910000000     0.0431152  
H152     H      0.550240000000     0.213660000000     0.375490000000     0.0387962  
H153     H      0.551500000000     0.131830000000     0.129700000000     0.0392642  
H154     H      0.548200000000     0.216270000000     0.129460000000     0.0389362  
H155     H      0.488680000000     0.240560000000     0.096320000000     0.0435425  
H156     H      0.513690000000     0.103990000000     0.154460000000     0.0432906  
H157     H      0.493640000000     0.103060000000     0.096750000000     0.0438534  
H158     H      0.454090000000     0.128340000000     0.121400000000     0.0391669  
H159     H      0.508590000000     0.241480000000     0.154090000000     0.0437419  
H160     H      0.450800000000     0.212780000000     0.121060000000     0.0394921  
H161     H      0.835280000000     0.343980000000     0.211470000000     0.0418808  
H162     H      0.896440000000     0.331100000000     0.257220000000     0.0392929  
H163     H      0.883880000000     0.382020000000     0.299190000000     0.0409746  
H164     H      0.784500000000     0.318560000000     0.219140000000     0.0375208  
H165     H      0.784110000000     0.398050000000     0.229780000000     0.0385637  
H166     H      0.770550000000     0.366430000000     0.264390000000     0.0413769  
H167     H      0.879760000000     0.301820000000     0.291810000000     0.0410549  
H168     H      0.833280000000     0.358450000000     0.308910000000     0.0391285  
H169     H      0.854940000000     0.680650000000     0.227670000000     0.0422304  
H170     H      0.793190000000     0.688990000000     0.274760000000     0.0400408  
H171     H      0.816530000000     0.645370000000     0.318940000000     0.0401682  
H172     H      0.900530000000     0.715430000000     0.232280000000     0.0385604  
H173     H      0.916270000000     0.639730000000     0.248270000000     0.0405996  
H174     H      0.923110000000     0.677070000000     0.280780000000     0.0405176  
H175     H      0.806590000000     0.724520000000     0.306740000000     0.0412943  
H176     H      0.862770000000     0.678240000000     0.325280000000     0.0386484  
H177     H      0.790720000000     0.343780000000     0.520690000000     0.041998   
H178     H      0.851510000000     0.346930000000     0.068870000000     0.0391824  
H179     H      0.901020000000     0.292370000000     0.054290000000     0.0410029  
H180     H      0.801840000000     0.377930000000     0.486880000000     0.0384745  
H181     H      0.815450000000     0.301880000000     0.474130000000     0.040692   
H182     H      0.863930000000     0.333130000000     0.472050000000     0.0413751  
H183     H      0.899550000000     0.374850000000     0.058700000000     0.0406405  
H184     H      0.920040000000     0.322120000000     0.020620000000     0.039029   
H185     H      0.777190000000     0.681630000000     0.028610000000     0.0374836  
H186     H      0.838840000000     0.683040000000     0.074500000000     0.0413835  
H187     H      0.898310000000     0.635840000000     0.059640000000     0.0388707  
H188     H      0.789370000000     0.709000000000     0.492120000000     0.0397513  
H189     H      0.797620000000     0.628390000000     0.490070000000     0.0404177  
H190     H      0.844080000000     0.658120000000     0.478510000000     0.0391352  
H191     H      0.885410000000     0.714890000000     0.065390000000     0.0391388  
H192     H      0.906960000000     0.665130000000     0.523020000000     0.0415353  
H193     H      0.894030000000     0.453560000000     0.390710000000     0.0379198  
H194     H      0.809840000000     0.456830000000     0.392780000000     0.0388135  
H195     H      0.784220000000     0.513230000000     0.428410000000     0.0434966  
H196     H      0.921540000000     0.495110000000     0.369530000000     0.0433994  
H197     H      0.921920000000     0.503480000000     0.429540000000     0.0428413  
H198     H      0.899760000000     0.548150000000     0.408360000000     0.0396593  
H199     H      0.783430000000     0.498270000000     0.370630000000     0.0433198  
H200     H      0.813290000000     0.552750000000     0.406250000000     0.038927   
H201     H      0.892430000000     0.560870000000     0.149260000000     0.0389327  
H202     H      0.809810000000     0.571470000000     0.151410000000     0.0389693  
H203     H      0.776220000000     0.513720000000     0.121760000000     0.0432691  
H204     H      0.916960000000     0.525180000000     0.177380000000     0.0429871  
H205     H      0.912960000000     0.492950000000     0.123660000000     0.0438922  
H206     H      0.880800000000     0.463970000000     0.151770000000     0.0402411  
H207     H      0.779420000000     0.539470000000     0.178910000000     0.0433507  
H208     H      0.796390000000     0.474680000000     0.149410000000     0.0391839  
H209     H      0.329240000000     0.892690000000     0.221550000000     0.0390585  
H210     H      0.336310000000     0.824380000000     0.184280000000     0.0403489  
H211     H      0.384020000000     0.772180000000     0.209280000000     0.0401042  
H212     H      0.295140000000     0.888450000000     0.255980000000     0.0395152  
H213     H      0.374270000000     0.884030000000     0.268260000000     0.0417269  
H214     H      0.344020000000     0.838670000000     0.281230000000     0.0410917  
H215     H      0.305180000000     0.778200000000     0.195630000000     0.0379749  
H216     H      0.349220000000     0.767630000000     0.243520000000     0.0411484  
H217     H      0.679000000000     0.839460000000     0.301220000000     0.0406015  
H218     H      0.685690000000     0.775510000000     0.258570000000     0.0389133  
H219     H      0.638220000000     0.791220000000     0.214550000000     0.0413896  
H220     H      0.710740000000     0.886350000000     0.293140000000     0.0400505  
H221     H      0.632560000000     0.896200000000     0.280370000000     0.0392775  
H222     H      0.666930000000     0.903260000000     0.246040000000     0.0413403  
H223     H      0.718340000000     0.785190000000     0.224050000000     0.0415683  
H224     H      0.668550000000     0.837590000000     0.203900000000     0.0401752  
H225     H      0.323270000000     0.824660000000     0.433370000000     0.0407153  
H226     H      0.322870000000     0.761990000000     0.476250000000     0.0380309  
H227     H      0.375140000000     0.777510000000     0.016900000000     0.0417591  
H228     H      0.292750000000     0.871710000000     0.443390000000     0.0377116  
H229     H      0.373140000000     0.880790000000     0.949870000000     0.0387805  
H230     H      0.343280000000     0.890300000000     0.986020000000     0.0416691  
H231     H      0.294480000000     0.771230000000     0.512890000000     0.0388152  
H232     H      0.346270000000     0.823630000000     0.029920000000     0.0403819  
H233     H      0.663780000000     0.843360000000     0.069770000000     0.0399234  
H234     H      0.670370000000     0.772650000000     0.035270000000     0.0384522  
H235     H      0.635850000000     0.781810000000     0.483530000000     0.0422977  
H236     H      0.699960000000     0.886290000000     0.059750000000     0.0365688  
H237     H      0.623770000000     0.896480000000     0.039230000000     0.0407502  
H238     H      0.664030000000     0.897390000000     0.508370000000     0.0415712  
H239     H      0.710720000000     0.771590000000     0.504570000000     0.0361427  
H240     H      0.671580000000     0.824390000000     0.473380000000     0.0428356  
H241     H      0.466020000000     0.786700000000     0.364550000000     0.0399264  
H242     H      0.461080000000     0.872330000000     0.366380000000     0.0394778  
H243     H      0.519310000000     0.903050000000     0.398440000000     0.0433009  
H244     H      0.508450000000     0.764310000000     0.340960000000     0.0432074  
H245     H      0.523540000000     0.765540000000     0.400230000000     0.0433487  
H246     H      0.562510000000     0.793070000000     0.376440000000     0.038226   
H247     H      0.497920000000     0.901470000000     0.341740000000     0.0435973  
H248     H      0.558590000000     0.876610000000     0.374050000000     0.0392419  
H249     H      0.550380000000     0.802770000000     0.119370000000     0.0401269  
H250     H      0.542820000000     0.887330000000     0.121740000000     0.0390719  
H251     H      0.479810000000     0.907170000000     0.090860000000     0.0435855  
H252     H      0.518360000000     0.771920000000     0.146500000000     0.0437627  
H253     H      0.488870000000     0.769760000000     0.091800000000     0.0434381  
H254     H      0.452570000000     0.795200000000     0.119090000000     0.0387229  
H255     H      0.503360000000     0.908830000000     0.148480000000     0.0434293  
H256     H      0.445370000000     0.877890000000     0.117340000000     0.0391985  
H257     H      0.211140000000     0.980190000000     0.696610000000     0.0388234  
H258     H      0.206330000000     0.986540000000     0.761600000000     0.0397756  
H259     H      0.143130000000     0.028130000000     0.778670000000     0.0436667  
H260     H      0.170470000000     0.948530000000     0.677870000000     0.0432635  
H261     H      0.157870000000     0.028590000000     0.676000000000     0.0427974  
H262     H      0.114920000000     0.997930000000     0.692970000000     0.0384236  
H263     H      0.166720000000     0.953930000000     0.780940000000     0.0434658  
H264     H      0.108940000000     0.994500000000     0.755170000000     0.0390908  
H265     H      0.125350000000     0.980660000000     0.530220000000     0.0397013  
H266     H      0.118040000000     0.984370000000     0.465920000000     0.039619   
H267     H      0.169620000000     0.035280000000     0.945190000000     0.0427064  
H268     H      0.169290000000     0.950220000000     0.545800000000     0.0434474  
H269     H      0.182000000000     0.028510000000     0.547720000000     0.0436946  
H270     H      0.220990000000     0.000490000000     0.024320000000     0.0394984  
H271     H      0.157940000000     0.956420000000     0.943210000000     0.0432851  
H272     H      0.213750000000     0.004950000000     0.960780000000     0.0387248  
H273     H      0.000740000000     0.229540000000     0.772380000000     0.0376811  
H274     H      0.997080000000     0.228880000000     0.710360000000     0.0383795  
H275     H      0.033030000000     0.166380000000     0.687860000000     0.0438265  
H276     H      0.966770000000     0.193850000000     0.794330000000     0.0429171  
H277     H      0.043110000000     0.169480000000     0.790840000000     0.0431201  
H278     H      0.005660000000     0.132080000000     0.774260000000     0.0398587  
H279     H      0.959100000000     0.194220000000     0.691180000000     0.0432047  
H280     H      0.998400000000     0.131190000000     0.709710000000     0.040389   
H281     H      0.007100000000     0.197660000000     0.975080000000     0.0390815  
H282     H      0.009400000000     0.192590000000     0.041340000000     0.0409743  
H283     H      0.963080000000     0.134050000000     0.558980000000     0.0435685  
H284     H      0.035770000000     0.156500000000     0.954460000000     0.0437495  
H285     H      0.956210000000     0.144860000000     0.956260000000     0.0428057  
H286     H      0.986930000000     0.102130000000     0.473400000000     0.0385027  
H287     H      0.040960000000     0.149620000000     0.557200000000     0.0430773  
H288     H      0.992280000000     0.096790000000     0.534840000000     0.0385877  
H289     H      0.011120000000     0.787170000000     0.779350000000     0.0389125  
H290     H      0.001370000000     0.790740000000     0.716370000000     0.0393738  
H291     H      0.967190000000     0.858140000000     0.699640000000     0.0437249  
H292     H      0.051400000000     0.820580000000     0.796910000000     0.0432392  
H293     H      0.976390000000     0.849370000000     0.802520000000     0.0431016  
H294     H      0.012370000000     0.884780000000     0.782060000000     0.0390385  
H295     H      0.037800000000     0.823620000000     0.694100000000     0.0434649  
H296     H      0.008250000000     0.888110000000     0.719500000000     0.0397597  
H297     H      0.793030000000     0.009430000000     0.778460000000     0.0394258  
H298     H      0.785500000000     0.999300000000     0.714920000000     0.0386849  
H299     H      0.832200000000     0.052490000000     0.692860000000     0.0424569  
H300     H      0.834110000000     0.979480000000     0.798320000000     0.043788   
H301     H      0.855000000000     0.053710000000     0.794580000000     0.0439263  
H302     H      0.889740000000     0.021580000000     0.770390000000     0.040468   
H303     H      0.827810000000     0.970600000000     0.695510000000     0.0427003  
H304     H      0.879240000000     0.025450000000     0.706760000000     0.0387165  
H305     H      0.000130000000     0.882090000000     0.539590000000     0.0394078  
H306     H      0.989630000000     0.881320000000     0.976490000000     0.0390531  
H307     H      0.027870000000     0.821240000000     0.952790000000     0.0439353  
H308     H      0.970010000000     0.844090000000     0.562530000000     0.0431552  
H309     H      0.046770000000     0.823440000000     0.554970000000     0.0430871  
H310     H      0.009740000000     0.784850000000     0.539470000000     0.0391408  
H311     H      0.952230000000     0.843740000000     0.960210000000     0.0436022  
H312     H      0.997580000000     0.784000000000     0.976220000000     0.0392962  
H313     H      0.761010000000     0.013600000000     0.988980000000     0.0373483  
H314     H      0.768130000000     0.012930000000     0.550230000000     0.0379552  
H315     H      0.829700000000     0.971700000000     0.569120000000     0.043993   
H316     H      0.798190000000     0.044610000000     0.965930000000     0.043232   
H317     H      0.813710000000     0.965470000000     0.966850000000     0.0430468  
H318     H      0.857150000000     0.998190000000     0.980440000000     0.0396443  
H319     H      0.807070000000     0.046920000000     0.568900000000     0.0431794  
H320     H      0.865700000000     0.004100000000     0.546110000000     0.0413434  
H321     H      0.235190000000     0.663890000000     0.744480000000     0.0396126  
H322     H      0.168660000000     0.656470000000     0.701660000000     0.0417933  
H323     H      0.107950000000     0.617270000000     0.725340000000     0.040457   
H324     H      0.225550000000     0.698410000000     0.777830000000     0.0415436  
H325     H      0.216460000000     0.618320000000     0.788550000000     0.0404632  
H326     H      0.171970000000     0.651540000000     0.799210000000     0.0387783  
H327     H      0.124120000000     0.691940000000     0.708690000000     0.0403645  
H328     H      0.106260000000     0.654050000000     0.758600000000     0.0410458  
H329     H      0.240120000000     0.335270000000     0.728370000000     0.0406577  
H330     H      0.173110000000     0.342070000000     0.688290000000     0.0385341  
H331     H      0.123450000000     0.286690000000     0.702130000000     0.0416935  
H332     H      0.234400000000     0.361280000000     0.766670000000     0.0396132  
H333     H      0.226400000000     0.281500000000     0.769810000000     0.0388518  
H334     H      0.179400000000     0.309840000000     0.783110000000     0.04206    
H335     H      0.126180000000     0.367820000000     0.703590000000     0.0408868  
H336     H      0.112450000000     0.310360000000     0.740220000000     0.03952    
H337     H      0.176150000000     0.644210000000     0.931210000000     0.0382244  
H338     H      0.240430000000     0.651270000000     0.972080000000     0.0410365  
H339     H      0.222710000000     0.695990000000     0.518730000000     0.0379937  
H340     H      0.130480000000     0.613870000000     0.943700000000     0.0405219  
H341     H      0.124090000000     0.695620000000     0.447610000000     0.0414946  
H342     H      0.111160000000     0.666170000000     0.482960000000     0.0404514  
H343     H      0.237710000000     0.619130000000     0.007920000000     0.0438283  
H344     H      0.177550000000     0.662400000000     0.528150000000     0.042763   
H345     H      0.156060000000     0.321680000000     0.967200000000     0.0435376  
H346     H      0.224770000000     0.314490000000     0.010720000000     0.0400276  
H347     H      0.210610000000     0.369370000000     0.548960000000     0.0407595  
H348     H      0.109820000000     0.290550000000     0.978280000000     0.0391321  
H349     H      0.099080000000     0.367990000000     0.988790000000     0.0376767  
H350     H      0.097120000000     0.336800000000     0.525110000000     0.0406868  
H351     H      0.211320000000     0.286970000000     0.546800000000     0.0413086  
H352     H      0.164250000000     0.342250000000     0.563850000000     0.0377325  
H353     H      0.125070000000     0.515170000000     0.867020000000     0.0407129  
H354     H      0.215110000000     0.517000000000     0.867430000000     0.0404866  
H355     H      0.240160000000     0.461470000000     0.903560000000     0.042815   
H356     H      0.102410000000     0.472350000000     0.844170000000     0.0432553  
H357     H      0.102240000000     0.458640000000     0.903170000000     0.0430329  
H358     H      0.130980000000     0.419440000000     0.880530000000     0.0377003  
H359     H      0.239840000000     0.475280000000     0.844630000000     0.0434559  
H360     H      0.213250000000     0.420900000000     0.880760000000     0.0382188  
H361     H      0.127110000000     0.465960000000     0.627180000000     0.0401303  
H362     H      0.216980000000     0.469610000000     0.626950000000     0.0406385  
H363     H      0.237990000000     0.527850000000     0.591620000000     0.0429959  
H364     H      0.101730000000     0.506270000000     0.650970000000     0.0434168  
H365     H      0.100170000000     0.522190000000     0.592400000000     0.0425132  
H366     H      0.126680000000     0.562520000000     0.615740000000     0.0381207  
H367     H      0.239120000000     0.512150000000     0.650400000000     0.0430515  
H368     H      0.208790000000     0.565620000000     0.615260000000     0.037463   
H369     H      0.333560000000     0.216630000000     0.739740000000     0.0416992  
H370     H      0.336680000000     0.147640000000     0.781150000000     0.0406223  
H371     H      0.292500000000     0.093110000000     0.757470000000     0.0397374  
H372     H      0.370750000000     0.213860000000     0.706780000000     0.0393845  
H373     H      0.295100000000     0.196940000000     0.690540000000     0.0400741  
H374     H      0.331700000000     0.153270000000     0.683540000000     0.0405701  
H375     H      0.371770000000     0.105380000000     0.769250000000     0.041339   
H376     H      0.327820000000     0.088250000000     0.723800000000     0.0383418  
H377     H      0.652260000000     0.176660000000     0.806750000000     0.0377044  
H378     H      0.656840000000     0.241460000000     0.764130000000     0.041395   
H379     H      0.702120000000     0.224800000000     0.717290000000     0.0391762  
H380     H      0.626110000000     0.129220000000     0.793180000000     0.0401892  
H381     H      0.709250000000     0.130810000000     0.791330000000     0.0404407  
H382     H      0.681800000000     0.113650000000     0.756060000000     0.0389015  
H383     H      0.624750000000     0.235360000000     0.728430000000     0.0400593  
H384     H      0.671600000000     0.176950000000     0.709760000000     0.0428624  
H385     H      0.330660000000     0.162440000000     0.541450000000     0.0424666  
H386     H      0.321160000000     0.228600000000     0.497860000000     0.03857    
H387     H      0.375650000000     0.215410000000     0.958990000000     0.0404361  
H388     H      0.300390000000     0.115080000000     0.531940000000     0.0397876  
H389     H      0.378060000000     0.105960000000     0.520640000000     0.0405556  
H390     H      0.345960000000     0.101640000000     0.984820000000     0.0382289  
H391     H      0.293040000000     0.214700000000     0.962070000000     0.0406928  
H392     H      0.349090000000     0.168640000000     0.944560000000     0.0378133  
H393     H      0.679670000000     0.257830000000     0.017160000000     0.036968   
H394     H      0.671890000000     0.202510000000     0.564560000000     0.0408117  
H395     H      0.629930000000     0.138990000000     0.549390000000     0.0378176  
H396     H      0.712840000000     0.242820000000     0.983970000000     0.0353486  
H397     H      0.631320000000     0.234570000000     0.976390000000     0.0408922  
H398     H      0.663280000000     0.188740000000     0.967460000000     0.0413541  
H399     H      0.706070000000     0.156010000000     0.563260000000     0.0402985  
H400     H      0.666200000000     0.128000000000     0.516810000000     0.0432132  
H401     H      0.452080000000     0.130380000000     0.875260000000     0.0387539  
H402     H      0.452110000000     0.214210000000     0.875580000000     0.0393934  
H403     H      0.516120000000     0.240620000000     0.903410000000     0.0434885  
H404     H      0.486320000000     0.103530000000     0.847360000000     0.0434775  
H405     H      0.515390000000     0.102910000000     0.902960000000     0.0427267  
H406     H      0.550210000000     0.129860000000     0.875300000000     0.0391651  
H407     H      0.486850000000     0.241240000000     0.847910000000     0.0430506  
H408     H      0.550240000000     0.213660000000     0.875490000000     0.0386848  
H409     H      0.551500000000     0.131830000000     0.629700000000     0.0392372  
H410     H      0.548200000000     0.216270000000     0.629460000000     0.0388558  
H411     H      0.488680000000     0.240560000000     0.596320000000     0.0432412  
H412     H      0.513690000000     0.103990000000     0.654460000000     0.043266   
H413     H      0.493640000000     0.103060000000     0.596750000000     0.0437074  
H414     H      0.454090000000     0.128340000000     0.621400000000     0.0390616  
H415     H      0.508590000000     0.241480000000     0.654090000000     0.0436503  
H416     H      0.450800000000     0.212780000000     0.621060000000     0.0393163  
H417     H      0.835280000000     0.343980000000     0.711470000000     0.041881   
H418     H      0.896440000000     0.331100000000     0.757220000000     0.0392973  
H419     H      0.883880000000     0.382020000000     0.799190000000     0.0409442  
H420     H      0.784500000000     0.318560000000     0.719140000000     0.037502   
H421     H      0.784110000000     0.398050000000     0.729780000000     0.0385395  
H422     H      0.770550000000     0.366430000000     0.764390000000     0.0413341  
H423     H      0.879760000000     0.301820000000     0.791810000000     0.0410353  
H424     H      0.833280000000     0.358450000000     0.808910000000     0.0390773  
H425     H      0.854940000000     0.680650000000     0.727670000000     0.0422282  
H426     H      0.793190000000     0.688990000000     0.774760000000     0.0400155  
H427     H      0.816530000000     0.645370000000     0.818940000000     0.0400935  
H428     H      0.900530000000     0.715430000000     0.732280000000     0.0385623  
H429     H      0.916270000000     0.639730000000     0.748270000000     0.040598   
H430     H      0.923110000000     0.677070000000     0.780780000000     0.0404999  
H431     H      0.806590000000     0.724520000000     0.806740000000     0.041234   
H432     H      0.862770000000     0.678240000000     0.825280000000     0.0385686  
H433     H      0.790720000000     0.343780000000     0.020690000000     0.041149   
H434     H      0.851510000000     0.346930000000     0.568870000000     0.0392759  
H435     H      0.901020000000     0.292370000000     0.554290000000     0.0408896  
H436     H      0.801840000000     0.377930000000     0.986880000000     0.0350012  
H437     H      0.815450000000     0.301880000000     0.974120000000     0.0414117  
H438     H      0.863930000000     0.333130000000     0.972050000000     0.0418807  
H439     H      0.899550000000     0.374850000000     0.558700000000     0.0405909  
H440     H      0.920040000000     0.322120000000     0.520620000000     0.0382546  
H441     H      0.777190000000     0.681630000000     0.528610000000     0.0383712  
H442     H      0.838840000000     0.683040000000     0.574490000000     0.0414846  
H443     H      0.898310000000     0.635840000000     0.559640000000     0.038675   
H444     H      0.789370000000     0.709000000000     0.992120000000     0.0360755  
H445     H      0.797620000000     0.628390000000     0.990070000000     0.0407864  
H446     H      0.844080000000     0.658120000000     0.978510000000     0.0396333  
H447     H      0.885410000000     0.714890000000     0.565390000000     0.0391112  
H448     H      0.906960000000     0.665130000000     0.023020000000     0.0423694  
H449     H      0.894030000000     0.453560000000     0.890710000000     0.0377705  
H450     H      0.809840000000     0.456830000000     0.892780000000     0.0386651  
H451     H      0.784220000000     0.513230000000     0.928410000000     0.0431715  
H452     H      0.921540000000     0.495110000000     0.869530000000     0.0433359  
H453     H      0.921920000000     0.503480000000     0.929540000000     0.0425235  
H454     H      0.899760000000     0.548150000000     0.908360000000     0.0394603  
H455     H      0.783430000000     0.498270000000     0.870640000000     0.0432087  
H456     H      0.813290000000     0.552750000000     0.906250000000     0.0387354  
H457     H      0.892430000000     0.560870000000     0.649260000000     0.0389059  
H458     H      0.809810000000     0.571470000000     0.651410000000     0.0389282  
H459     H      0.776220000000     0.513720000000     0.621760000000     0.0431429  
H460     H      0.916960000000     0.525180000000     0.677380000000     0.0429702  
H461     H      0.912960000000     0.492950000000     0.623660000000     0.0438296  
H462     H      0.880800000000     0.463970000000     0.651770000000     0.0402325  
H463     H      0.779420000000     0.539470000000     0.678910000000     0.0432968  
H464     H      0.796390000000     0.474680000000     0.649410000000     0.0391352  
H465     H      0.329240000000     0.892690000000     0.721550000000     0.0390486  
H466     H      0.336310000000     0.824380000000     0.684280000000     0.0402857  
H467     H      0.384020000000     0.772180000000     0.709280000000     0.0400602  
H468     H      0.295140000000     0.888450000000     0.755980000000     0.0395201  
H469     H      0.374270000000     0.884030000000     0.768250000000     0.0417338  
H470     H      0.344020000000     0.838670000000     0.781230000000     0.0410863  
H471     H      0.305180000000     0.778200000000     0.695630000000     0.0379194  
H472     H      0.349220000000     0.767630000000     0.743520000000     0.0411266  
H473     H      0.679000000000     0.839460000000     0.801220000000     0.0405322  
H474     H      0.685690000000     0.775510000000     0.758570000000     0.038876   
H475     H      0.638220000000     0.791220000000     0.714550000000     0.0413614  
H476     H      0.710740000000     0.886350000000     0.793140000000     0.0400017  
H477     H      0.632560000000     0.896200000000     0.780370000000     0.0392474  
H478     H      0.666930000000     0.903260000000     0.746040000000     0.0413408  
H479     H      0.718340000000     0.785190000000     0.724050000000     0.041556   
H480     H      0.668550000000     0.837590000000     0.703900000000     0.0401719  
H481     H      0.323270000000     0.824660000000     0.933370000000     0.0408188  
H482     H      0.322870000000     0.761990000000     0.976250000000     0.0389272  
H483     H      0.375140000000     0.777510000000     0.516900000000     0.0420979  
H484     H      0.292750000000     0.871710000000     0.943390000000     0.0377286  
H485     H      0.373140000000     0.880790000000     0.449860000000     0.0389408  
H486     H      0.343280000000     0.890300000000     0.486020000000     0.0424744  
H487     H      0.294480000000     0.771230000000     0.012890000000     0.0421607  
H488     H      0.346270000000     0.823630000000     0.529920000000     0.0409759  
H489     H      0.663780000000     0.843360000000     0.569770000000     0.039949   
H490     H      0.670370000000     0.772650000000     0.535270000000     0.0386719  
H491     H      0.635850000000     0.781810000000     0.983530000000     0.0423022  
H492     H      0.699960000000     0.886290000000     0.559750000000     0.0365005  
H493     H      0.623770000000     0.896480000000     0.539220000000     0.0405004  
H494     H      0.664030000000     0.897390000000     0.008370000000     0.0424372  
H495     H      0.710720000000     0.771590000000     0.004570000000     0.036383   
H496     H      0.671580000000     0.824390000000     0.973380000000     0.0429098  
H497     H      0.466020000000     0.786700000000     0.864550000000     0.0398704  
H498     H      0.461080000000     0.872330000000     0.866380000000     0.0394538  
H499     H      0.519310000000     0.903050000000     0.898450000000     0.0431178  
H500     H      0.508450000000     0.764310000000     0.840960000000     0.043135   
H501     H      0.523540000000     0.765540000000     0.900230000000     0.043151   
H502     H      0.562510000000     0.793070000000     0.876440000000     0.0380815  
H503     H      0.497920000000     0.901470000000     0.841740000000     0.0435586  
H504     H      0.558590000000     0.876610000000     0.874050000000     0.0390974  
H505     H      0.550380000000     0.802770000000     0.619380000000     0.040051   
H506     H      0.542820000000     0.887330000000     0.621740000000     0.0390242  
H507     H      0.479810000000     0.907170000000     0.590860000000     0.0433481  
H508     H      0.518360000000     0.771920000000     0.646500000000     0.043682   
H509     H      0.488870000000     0.769760000000     0.591800000000     0.0431556  
H510     H      0.452570000000     0.795200000000     0.619090000000     0.03857    
H511     H      0.503360000000     0.908830000000     0.648480000000     0.0433976  
H512     H      0.445370000000     0.877890000000     0.617340000000     0.0390435  
N1       N      0.150070000000     0.032930000000     0.227160000000    -0.171239   
N2       N      0.172320000000     0.946830000000     0.229520000000    -0.171205   
N3       N      0.177860000000     0.036620000000     0.496400000000    -0.16993    
N4       N      0.160710000000     0.948580000000     0.994530000000    -0.170789   
N5       N      0.042160000000     0.164340000000     0.239270000000    -0.170984   
N6       N      0.958430000000     0.194570000000     0.242940000000    -0.171692   
N7       N      0.955010000000     0.139900000000     0.007710000000    -0.169697   
N8       N      0.042900000000     0.157910000000     0.005930000000    -0.169116   
N9       N      0.967350000000     0.855340000000     0.251480000000    -0.170442   
N10      N      0.048890000000     0.819620000000     0.245190000000    -0.170551   
N11      N      0.845830000000     0.057980000000     0.243200000000    -0.170249   
N12      N      0.828580000000     0.970150000000     0.247050000000    -0.169943   
N13      N      0.041810000000     0.819760000000     0.503480000000    -0.169991   
N14      N      0.956610000000     0.846150000000     0.011840000000    -0.169073   
N15      N      0.826480000000     0.964290000000     0.017600000000    -0.1694     
N16      N      0.803100000000     0.050390000000     0.017290000000    -0.17005    
N17      N      0.161010000000     0.614410000000     0.258090000000    -0.171271   
N18      N      0.177530000000     0.698270000000     0.240840000000    -0.170945   
N19      N      0.172610000000     0.280180000000     0.237980000000    -0.170921   
N20      N      0.181670000000     0.368340000000     0.234180000000    -0.171153   
N21      N      0.169700000000     0.699130000000     0.986100000000    -0.171739   
N22      N      0.184970000000     0.612840000000     0.975190000000    -0.170134   
N23      N      0.154090000000     0.372540000000     0.019630000000    -0.17124    
N24      N      0.164150000000     0.285250000000     0.509360000000    -0.170508   
N25      N      0.171260000000     0.460620000000     0.406820000000    -0.170206   
N26      N      0.170980000000     0.479770000000     0.341110000000    -0.169648   
N27      N      0.168940000000     0.524460000000     0.088560000000    -0.170044   
N28      N      0.170810000000     0.503260000000     0.153880000000    -0.169599   
N29      N      0.290510000000     0.144110000000     0.223060000000    -0.171279   
N30      N      0.374150000000     0.162650000000     0.240800000000    -0.170861   
N31      N      0.709280000000     0.174580000000     0.251780000000    -0.170966   
N32      N      0.621740000000     0.183870000000     0.262260000000    -0.171161   
N33      N      0.380590000000     0.159360000000     0.988460000000    -0.172986   
N34      N      0.293090000000     0.167680000000     0.999530000000    -0.174137   
N35      N      0.627840000000     0.182840000000     0.010070000000    -0.169021   
N36      N      0.712870000000     0.200300000000     0.024320000000    -0.172435   
N37      N      0.517400000000     0.171600000000     0.406520000000    -0.170817   
N38      N      0.484910000000     0.172540000000     0.344290000000    -0.170839   
N39      N      0.489290000000     0.171820000000     0.093080000000    -0.170313   
N40      N      0.513000000000     0.172730000000     0.157730000000    -0.170462   
N41      N      0.832360000000     0.393770000000     0.266100000000    -0.170777   
N42      N      0.833890000000     0.306490000000     0.253460000000    -0.170747   
N43      N      0.867420000000     0.639060000000     0.284550000000    -0.170782   
N44      N      0.850420000000     0.722930000000     0.266930000000    -0.170547   
N45      N      0.860170000000     0.293340000000     0.012850000000    -0.169433   
N46      N      0.847670000000     0.379740000000     0.025080000000    -0.171623   
N47      N      0.850120000000     0.628580000000     0.023520000000    -0.169412   
N48      N      0.835320000000     0.715530000000     0.030260000000    -0.171667   
N49      N      0.853420000000     0.511180000000     0.432500000000    -0.171096   
N50      N      0.852450000000     0.495820000000     0.366590000000    -0.171082   
N51      N      0.844140000000     0.501010000000     0.119530000000    -0.171314   
N52      N      0.848270000000     0.533160000000     0.181500000000    -0.171454   
N53      N      0.382670000000     0.826190000000     0.240990000000    -0.170922   
N54      N      0.296960000000     0.833870000000     0.224730000000    -0.171584   
N55      N      0.631950000000     0.845570000000     0.245800000000    -0.171272   
N56      N      0.718050000000     0.834360000000     0.260070000000    -0.171123   
N57      N      0.377980000000     0.832400000000     0.985900000000    -0.171348   
N58      N      0.290090000000     0.820600000000     0.477270000000    -0.170724   
N59      N      0.626580000000     0.841200000000     0.008820000000    -0.167952   
N60      N      0.708280000000     0.828180000000     0.033530000000    -0.171428   
N61      N      0.522450000000     0.834410000000     0.402790000000    -0.170697   
N62      N      0.500380000000     0.832530000000     0.337930000000    -0.170692   
N63      N      0.483570000000     0.838450000000     0.087930000000    -0.171049   
N64      N      0.513260000000     0.840660000000     0.150760000000    -0.171222   
N65      N      0.150070000000     0.032930000000     0.727160000000    -0.171291   
N66      N      0.172320000000     0.946830000000     0.729520000000    -0.171201   
N67      N      0.177860000000     0.036620000000     0.996400000000    -0.170845   
N68      N      0.160710000000     0.948580000000     0.494530000000    -0.169881   
N69      N      0.042160000000     0.164340000000     0.739270000000    -0.170979   
N70      N      0.958430000000     0.194570000000     0.742930000000    -0.171686   
N71      N      0.955010000000     0.139900000000     0.507710000000    -0.17061    
N72      N      0.042900000000     0.157910000000     0.505930000000    -0.170074   
N73      N      0.967350000000     0.855340000000     0.751480000000    -0.17044    
N74      N      0.048890000000     0.819620000000     0.745190000000    -0.170549   
N75      N      0.845830000000     0.057980000000     0.743200000000    -0.170242   
N76      N      0.828580000000     0.970150000000     0.747050000000    -0.169939   
N77      N      0.041810000000     0.819760000000     0.003480000000    -0.166604   
N78      N      0.956610000000     0.846150000000     0.511840000000    -0.170038   
N79      N      0.826480000000     0.964290000000     0.517600000000    -0.17033    
N80      N      0.803100000000     0.050390000000     0.517290000000    -0.170955   
N81      N      0.161010000000     0.614410000000     0.758090000000    -0.171275   
N82      N      0.177530000000     0.698270000000     0.740840000000    -0.170943   
N83      N      0.172610000000     0.280180000000     0.737980000000    -0.170923   
N84      N      0.181670000000     0.368340000000     0.734180000000    -0.17117    
N85      N      0.169700000000     0.699130000000     0.486100000000    -0.170431   
N86      N      0.184970000000     0.612840000000     0.475190000000    -0.170839   
N87      N      0.154090000000     0.372540000000     0.519630000000    -0.170803   
N88      N      0.164150000000     0.285250000000     0.009360000000    -0.169185   
N89      N      0.171260000000     0.460620000000     0.906820000000    -0.170193   
N90      N      0.170980000000     0.479770000000     0.841110000000    -0.16965    
N91      N      0.168940000000     0.524460000000     0.588560000000    -0.170287   
N92      N      0.170810000000     0.503260000000     0.653880000000    -0.169602   
N93      N      0.290510000000     0.144110000000     0.723060000000    -0.171288   
N94      N      0.374150000000     0.162650000000     0.740800000000    -0.170864   
N95      N      0.709280000000     0.174580000000     0.751780000000    -0.171013   
N96      N      0.621740000000     0.183870000000     0.762260000000    -0.171167   
N97      N      0.380590000000     0.159360000000     0.488460000000    -0.171237   
N98      N      0.293090000000     0.167680000000     0.499530000000    -0.170907   
N99      N      0.627840000000     0.182840000000     0.510070000000    -0.170877   
N100     N      0.712870000000     0.200300000000     0.524320000000    -0.171275   
N101     N      0.517400000000     0.171600000000     0.906520000000    -0.170925   
N102     N      0.484910000000     0.172540000000     0.844290000000    -0.170841   
N103     N      0.489290000000     0.171820000000     0.593080000000    -0.170423   
N104     N      0.513000000000     0.172730000000     0.657730000000    -0.170464   
N105     N      0.832360000000     0.393770000000     0.766100000000    -0.170782   
N106     N      0.833890000000     0.306490000000     0.753460000000    -0.170742   
N107     N      0.867420000000     0.639060000000     0.784550000000    -0.170791   
N108     N      0.850420000000     0.722930000000     0.766930000000    -0.17055    
N109     N      0.860170000000     0.293340000000     0.512850000000    -0.170757   
N110     N      0.847670000000     0.379740000000     0.525080000000    -0.170998   
N111     N      0.850120000000     0.628580000000     0.523520000000    -0.171182   
N112     N      0.835320000000     0.715530000000     0.530260000000    -0.171105   
N113     N      0.853420000000     0.511180000000     0.932500000000    -0.171331   
N114     N      0.852450000000     0.495820000000     0.866590000000    -0.171092   
N115     N      0.844140000000     0.501010000000     0.619530000000    -0.171287   
N116     N      0.848270000000     0.533160000000     0.681490000000    -0.171374   
N117     N      0.382670000000     0.826190000000     0.740990000000    -0.170924   
N118     N      0.296960000000     0.833870000000     0.724720000000    -0.171585   
N119     N      0.631950000000     0.845570000000     0.745800000000    -0.171274   
N120     N      0.718050000000     0.834360000000     0.760070000000    -0.171131   
N121     N      0.377980000000     0.832400000000     0.485900000000    -0.169633   
N122     N      0.290090000000     0.820600000000     0.977270000000    -0.169605   
N123     N      0.626580000000     0.841200000000     0.508820000000    -0.169812   
N124     N      0.708280000000     0.828180000000     0.533530000000    -0.171271   
N125     N      0.522450000000     0.834410000000     0.902790000000    -0.17069    
N126     N      0.500380000000     0.832530000000     0.837930000000    -0.170697   
N127     N      0.483570000000     0.838450000000     0.587930000000    -0.171293   
N128     N      0.513260000000     0.840660000000     0.650750000000    -0.171072   
Ni1      Ni     0.501140000000     0.874770000000     0.994750000000     0.981564   
Ni2      Ni     0.503860000000     0.799070000000     0.495950000000     1.00598    
Ni3      Ni     0.504380000000     0.873980000000     0.245550000000     1.00299    
Ni4      Ni     0.510270000000     0.798340000000     0.243050000000     1.00179    
Ni5      Ni     0.887060000000     0.503860000000     0.027480000000     1.00054    
Ni6      Ni     0.810890000000     0.504630000000     0.524440000000     1.0079     
Ni7      Ni     0.887790000000     0.511360000000     0.273280000000     1.00327    
Ni8      Ni     0.812450000000     0.521510000000     0.275230000000     0.994523   
Ni9      Ni     0.507550000000     0.133740000000     0.000670000000     1.01126    
Ni10     Ni     0.500730000000     0.209350000000     0.498990000000     0.998226   
Ni11     Ni     0.501200000000     0.135000000000     0.251730000000     0.997559   
Ni12     Ni     0.495000000000     0.210660000000     0.250230000000     1.00205    
Ni13     Ni     0.132020000000     0.496910000000     0.996040000000     0.991279   
Ni14     Ni     0.207690000000     0.488580000000     0.499250000000     0.995074   
Ni15     Ni     0.133290000000     0.488180000000     0.246780000000     1.001      
Ni16     Ni     0.209290000000     0.494080000000     0.248190000000     0.994002   
Ni17     Ni     0.827490000000     0.836620000000     0.495040000000     1.00042    
Ni18     Ni     0.836420000000     0.842550000000     0.051470000000     0.999483   
Ni19     Ni     0.841350000000     0.841940000000     0.227900000000     0.989451   
Ni20     Ni     0.843290000000     0.850810000000     0.284280000000     1.00118    
Ni21     Ni     0.837630000000     0.171270000000     0.043650000000     1.00693    
Ni22     Ni     0.830200000000     0.171820000000     0.486940000000     0.995376   
Ni23     Ni     0.831590000000     0.184730000000     0.219200000000     0.990861   
Ni24     Ni     0.836210000000     0.180170000000     0.275990000000     1.01115    
Ni25     Ni     0.170230000000     0.158150000000     0.030990000000     1.00203    
Ni26     Ni     0.166490000000     0.164020000000     0.474380000000     0.992815   
Ni27     Ni     0.170020000000     0.153670000000     0.259800000000     1.00345    
Ni28     Ni     0.163390000000     0.158940000000     0.203340000000     0.997478   
Ni29     Ni     0.171820000000     0.821830000000     0.018350000000     1.00202    
Ni30     Ni     0.160690000000     0.825450000000     0.462040000000     0.990699   
Ni31     Ni     0.169570000000     0.819700000000     0.206890000000     0.993643   
Ni32     Ni     0.177730000000     0.825080000000     0.263220000000     1.00463    
Ni33     Ni     0.501140000000     0.874770000000     0.494750000000     0.986878   
Ni34     Ni     0.503860000000     0.799070000000     0.995950000000     1.00065    
Ni35     Ni     0.504380000000     0.873980000000     0.745550000000     1.00302    
Ni36     Ni     0.510270000000     0.798340000000     0.743050000000     1.00173    
Ni37     Ni     0.887060000000     0.503860000000     0.527480000000     0.997686   
Ni38     Ni     0.810890000000     0.504630000000     0.024440000000     1.01095    
Ni39     Ni     0.887790000000     0.511360000000     0.773280000000     1.0033     
Ni40     Ni     0.812450000000     0.521510000000     0.775230000000     0.994455   
Ni41     Ni     0.507550000000     0.133740000000     0.500670000000     1.00144    
Ni42     Ni     0.500730000000     0.209350000000     0.998990000000     0.988554   
Ni43     Ni     0.501200000000     0.135000000000     0.751730000000     0.997589   
Ni44     Ni     0.495000000000     0.210660000000     0.750230000000     1.00199    
Ni45     Ni     0.132020000000     0.496910000000     0.496040000000     0.996486   
Ni46     Ni     0.207690000000     0.488580000000     0.999250000000     0.989706   
Ni47     Ni     0.133290000000     0.488180000000     0.746780000000     1.00103    
Ni48     Ni     0.209290000000     0.494080000000     0.748190000000     0.993964   
Ni49     Ni     0.827490000000     0.836620000000     0.995040000000     0.992616   
Ni50     Ni     0.836420000000     0.842550000000     0.551470000000     0.995634   
Ni51     Ni     0.841350000000     0.841940000000     0.727900000000     0.98952    
Ni52     Ni     0.843290000000     0.850810000000     0.784280000000     1.00112    
Ni53     Ni     0.837630000000     0.171270000000     0.543650000000     1.00326    
Ni54     Ni     0.830200000000     0.171820000000     0.986930000000     0.99376    
Ni55     Ni     0.831590000000     0.184730000000     0.719200000000     0.990788   
Ni56     Ni     0.836210000000     0.180170000000     0.775980000000     1.01107    
Ni57     Ni     0.170230000000     0.158150000000     0.530990000000     0.998832   
Ni58     Ni     0.166490000000     0.164020000000     0.974380000000     0.990778   
Ni59     Ni     0.170020000000     0.153670000000     0.759800000000     1.0035     
Ni60     Ni     0.163390000000     0.158940000000     0.703340000000     0.997541   
Ni61     Ni     0.171820000000     0.821830000000     0.518350000000     1.00039    
Ni62     Ni     0.160690000000     0.825450000000     0.962040000000     0.987023   
Ni63     Ni     0.169570000000     0.819700000000     0.706890000000     0.993627   
Ni64     Ni     0.177730000000     0.825080000000     0.763220000000     1.00466    
O1       O      0.489520000000     0.873210000000     0.039780000000    -0.446349   
O2       O      0.512920000000     0.870980000000     0.449830000000    -0.449263   
O3       O      0.440920000000     0.869930000000     0.985740000000    -0.444887   
O4       O      0.561490000000     0.874560000000     0.504090000000    -0.445315   
O5       O      0.564710000000     0.803900000000     0.000220000000    -0.447694   
O6       O      0.442770000000     0.799480000000     0.491910000000    -0.450212   
O7       O      0.510430000000     0.800190000000     0.450440000000    -0.452063   
O8       O      0.497270000000     0.802810000000     0.041260000000    -0.452019   
O9       O      0.507210000000     0.873790000000     0.199610000000    -0.450775   
O10      O      0.501940000000     0.869400000000     0.290830000000    -0.455797   
O11      O      0.565650000000     0.876200000000     0.247970000000    -0.450333   
O12      O      0.443520000000     0.866520000000     0.243980000000    -0.45105    
O13      O      0.449160000000     0.795910000000     0.240580000000    -0.451648   
O14      O      0.571020000000     0.805570000000     0.244320000000    -0.452344   
O15      O      0.507380000000     0.798800000000     0.289180000000    -0.44796    
O16      O      0.512630000000     0.803180000000     0.197680000000    -0.45409    
O17      O      0.881910000000     0.502500000000     0.072760000000    -0.455458   
O18      O      0.887010000000     0.505390000000     0.481370000000    -0.448817   
O19      O      0.885070000000     0.564990000000     0.028650000000    -0.449034   
O20      O      0.884030000000     0.442810000000     0.527280000000    -0.449201   
O21      O      0.812910000000     0.443650000000     0.023290000000    -0.451631   
O22      O      0.813980000000     0.565470000000     0.524310000000    -0.452683   
O23      O      0.815910000000     0.505820000000     0.479190000000    -0.456754   
O24      O      0.810820000000     0.503810000000     0.070490000000    -0.451152   
O25      O      0.883530000000     0.516790000000     0.227900000000    -0.45422    
O26      O      0.887080000000     0.506490000000     0.318890000000    -0.451788   
O27      O      0.876560000000     0.451400000000     0.270710000000    -0.450363   
O28      O      0.893700000000     0.572040000000     0.276080000000    -0.449886   
O29      O      0.823720000000     0.580580000000     0.283860000000    -0.448175   
O30      O      0.806260000000     0.461780000000     0.266550000000    -0.448344   
O31      O      0.816020000000     0.509680000000     0.320090000000    -0.451117   
O32      O      0.814140000000     0.532220000000     0.230120000000    -0.44996    
O33      O      0.500050000000     0.136380000000     0.045880000000    -0.453089   
O34      O      0.514350000000     0.136260000000     0.454810000000    -0.448282   
O35      O      0.567770000000     0.141820000000     0.006640000000    -0.451616   
O36      O      0.446830000000     0.130470000000     0.495790000000    -0.45264    
O37      O      0.440360000000     0.201080000000     0.992990000000    -0.448533   
O38      O      0.561690000000     0.212490000000     0.503660000000    -0.449395   
O39      O      0.508120000000     0.206830000000     0.453870000000    -0.453615   
O40      O      0.493810000000     0.206940000000     0.044800000000    -0.445813   
O41      O      0.508390000000     0.137530000000     0.205960000000    -0.448485   
O42      O      0.493610000000     0.137380000000     0.296850000000    -0.453555   
O43      O      0.440260000000     0.132470000000     0.246790000000    -0.449921   
O44      O      0.561610000000     0.142680000000     0.257970000000    -0.448773   
O45      O      0.555770000000     0.213330000000     0.254960000000    -0.452655   
O46      O      0.434670000000     0.203180000000     0.244420000000    -0.451252   
O47      O      0.488350000000     0.208030000000     0.296080000000    -0.448463   
O48      O      0.502300000000     0.208100000000     0.204980000000    -0.452151   
O49      O      0.133990000000     0.511970000000     0.040860000000    -0.44395    
O50      O      0.135190000000     0.481010000000     0.452010000000    -0.450298   
O51      O      0.127020000000     0.437950000000     0.006930000000    -0.448615   
O52      O      0.141880000000     0.555130000000     0.484070000000    -0.449029   
O53      O      0.212540000000     0.547730000000     0.988400000000    -0.449324   
O54      O      0.197650000000     0.430190000000     0.511110000000    -0.447327   
O55      O      0.205870000000     0.473540000000     0.454510000000    -0.447112   
O56      O      0.204670000000     0.504370000000     0.043230000000    -0.44895    
O57      O      0.135830000000     0.481690000000     0.292640000000    -0.447767   
O58      O      0.135630000000     0.495220000000     0.201550000000    -0.452207   
O59      O      0.140890000000     0.428110000000     0.240840000000    -0.450787   
O60      O      0.130800000000     0.548790000000     0.251420000000    -0.451589   
O61      O      0.201810000000     0.554210000000     0.254100000000    -0.449771   
O62      O      0.211910000000     0.433440000000     0.243340000000    -0.450168   
O63      O      0.206560000000     0.500760000000     0.202230000000    -0.445095   
O64      O      0.206770000000     0.486960000000     0.293520000000    -0.449614   
O65      O      0.767350000000     0.832450000000     0.502010000000    -0.45286    
O66      O      0.888590000000     0.840100000000     0.491540000000    -0.450922   
O67      O      0.830440000000     0.776090000000     0.500210000000    -0.450406   
O68      O      0.824220000000     0.897960000000     0.493920000000    -0.447864   
O69      O      0.832950000000     0.902780000000     0.046560000000    -0.454825   
O70      O      0.840030000000     0.781610000000     0.052860000000    -0.450922   
O71      O      0.897070000000     0.845040000000     0.044200000000    -0.448563   
O72      O      0.774770000000     0.840160000000     0.054730000000    -0.44455    
O73      O      0.780930000000     0.832770000000     0.232170000000    -0.449209   
O74      O      0.901680000000     0.850820000000     0.227500000000    -0.45214    
O75      O      0.851040000000     0.782160000000     0.234970000000    -0.445821   
O76      O      0.832320000000     0.902790000000     0.224850000000    -0.44317    
O77      O      0.841170000000     0.910700000000     0.277260000000    -0.453922   
O78      O      0.844090000000     0.789940000000     0.287650000000    -0.45086    
O79      O      0.904800000000     0.851970000000     0.280600000000    -0.447394   
O80      O      0.782020000000     0.849590000000     0.283900000000    -0.450074   
O81      O      0.778050000000     0.185100000000     0.046050000000    -0.453339   
O82      O      0.896250000000     0.156450000000     0.037850000000    -0.455397   
O83      O      0.852710000000     0.230730000000     0.040670000000    -0.4485     
O84      O      0.822580000000     0.112220000000     0.042600000000    -0.453083   
O85      O      0.815550000000     0.112490000000     0.489690000000    -0.449945   
O86      O      0.844190000000     0.230890000000     0.487780000000    -0.453152   
O87      O      0.890050000000     0.156890000000     0.484880000000    -0.446911   
O88      O      0.771400000000     0.187450000000     0.493010000000    -0.448352   
O89      O      0.827580000000     0.245540000000     0.223860000000    -0.446292   
O90      O      0.835840000000     0.123160000000     0.218480000000    -0.443767   
O91      O      0.770940000000     0.181480000000     0.223260000000    -0.452446   
O92      O      0.892740000000     0.188820000000     0.218870000000    -0.451973   
O93      O      0.896880000000     0.185430000000     0.271900000000    -0.453913   
O94      O      0.774840000000     0.174740000000     0.276240000000    -0.449656   
O95      O      0.840890000000     0.120100000000     0.271450000000    -0.457096   
O96      O      0.832800000000     0.240960000000     0.276910000000    -0.453468   
O97      O      0.171260000000     0.219410000000     0.032250000000    -0.449163   
O98      O      0.170320000000     0.097660000000     0.025980000000    -0.448715   
O99      O      0.231100000000     0.157540000000     0.027220000000    -0.452717   
O100     O      0.108640000000     0.158460000000     0.030790000000    -0.449629   
O101     O      0.105800000000     0.158110000000     0.477670000000    -0.450336   
O102     O      0.227700000000     0.170730000000     0.474940000000    -0.447786   
O103     O      0.172600000000     0.102910000000     0.472980000000    -0.446274   
O104     O      0.159990000000     0.224250000000     0.479780000000    -0.448858   
O105     O      0.179430000000     0.214100000000     0.260370000000    -0.450806   
O106     O      0.160220000000     0.094210000000     0.255540000000    -0.456485   
O107     O      0.229950000000     0.144030000000     0.253570000000    -0.450586   
O108     O      0.109210000000     0.162390000000     0.261960000000    -0.449979   
O109     O      0.102970000000     0.160360000000     0.209010000000    -0.454096   
O110     O      0.224770000000     0.157680000000     0.201430000000    -0.449893   
O111     O      0.161040000000     0.097610000000     0.202430000000    -0.447867   
O112     O      0.164630000000     0.219540000000     0.208430000000    -0.449928   
O113     O      0.231940000000     0.822160000000     0.010080000000    -0.447872   
O114     O      0.110640000000     0.820500000000     0.022990000000    -0.446353   
O115     O      0.173500000000     0.761160000000     0.014450000000    -0.448145   
O116     O      0.170000000000     0.883130000000     0.018420000000    -0.446249   
O117     O      0.159710000000     0.886220000000     0.465870000000    -0.449522   
O118     O      0.161520000000     0.764130000000     0.461960000000    -0.446869   
O119     O      0.100410000000     0.823640000000     0.470430000000    -0.448514   
O120     O      0.222090000000     0.827440000000     0.457440000000    -0.445247   
O121     O      0.167880000000     0.759240000000     0.212050000000    -0.451092   
O122     O      0.171300000000     0.880870000000     0.205590000000    -0.449141   
O123     O      0.231070000000     0.818010000000     0.204140000000    -0.446805   
O124     O      0.109020000000     0.821510000000     0.213700000000    -0.450058   
O125     O      0.116720000000     0.819260000000     0.266520000000    -0.450235   
O126     O      0.237620000000     0.832010000000     0.256150000000    -0.45325    
O127     O      0.171450000000     0.885140000000     0.258660000000    -0.45467    
O128     O      0.184380000000     0.764190000000     0.263730000000    -0.449597   
O129     O      0.489520000000     0.873210000000     0.539780000000    -0.448731   
O130     O      0.512920000000     0.870980000000     0.949830000000    -0.448824   
O131     O      0.440920000000     0.869930000000     0.485740000000    -0.445149   
O132     O      0.561490000000     0.874560000000     0.004090000000    -0.442761   
O133     O      0.564710000000     0.803900000000     0.500220000000    -0.450726   
O134     O      0.442770000000     0.799480000000     0.991910000000    -0.450341   
O135     O      0.510430000000     0.800190000000     0.950440000000    -0.451552   
O136     O      0.497270000000     0.802810000000     0.541260000000    -0.454377   
O137     O      0.507210000000     0.873790000000     0.699610000000    -0.450839   
O138     O      0.501940000000     0.869400000000     0.790830000000    -0.455806   
O139     O      0.565650000000     0.876200000000     0.747970000000    -0.450338   
O140     O      0.443520000000     0.866520000000     0.743980000000    -0.451055   
O141     O      0.449160000000     0.795910000000     0.740580000000    -0.451664   
O142     O      0.571020000000     0.805570000000     0.744320000000    -0.45236    
O143     O      0.507380000000     0.798800000000     0.789180000000    -0.44798    
O144     O      0.512630000000     0.803180000000     0.697680000000    -0.454162   
O145     O      0.881910000000     0.502500000000     0.572760000000    -0.454978   
O146     O      0.887010000000     0.505390000000     0.981370000000    -0.45114    
O147     O      0.885070000000     0.564990000000     0.528650000000    -0.449287   
O148     O      0.884030000000     0.442810000000     0.027280000000    -0.449076   
O149     O      0.812910000000     0.443650000000     0.523290000000    -0.451907   
O150     O      0.813980000000     0.565470000000     0.024310000000    -0.452141   
O151     O      0.815910000000     0.505820000000     0.979190000000    -0.459058   
O152     O      0.810820000000     0.503810000000     0.570490000000    -0.450711   
O153     O      0.883530000000     0.516790000000     0.727900000000    -0.454182   
O154     O      0.887080000000     0.506490000000     0.818890000000    -0.451809   
O155     O      0.876560000000     0.451400000000     0.770710000000    -0.450381   
O156     O      0.893700000000     0.572040000000     0.776080000000    -0.449894   
O157     O      0.823720000000     0.580580000000     0.783860000000    -0.448192   
O158     O      0.806260000000     0.461780000000     0.766550000000    -0.448363   
O159     O      0.816020000000     0.509680000000     0.820090000000    -0.451151   
O160     O      0.814140000000     0.532220000000     0.730120000000    -0.449935   
O161     O      0.500050000000     0.136380000000     0.545880000000    -0.452372   
O162     O      0.514350000000     0.136260000000     0.954810000000    -0.450783   
O163     O      0.567770000000     0.141820000000     0.506640000000    -0.451227   
O164     O      0.446830000000     0.130470000000     0.995790000000    -0.455746   
O165     O      0.440360000000     0.201080000000     0.492990000000    -0.448917   
O166     O      0.561690000000     0.212490000000     0.003670000000    -0.446281   
O167     O      0.508120000000     0.206830000000     0.953870000000    -0.452919   
O168     O      0.493810000000     0.206940000000     0.544800000000    -0.448343   
O169     O      0.508390000000     0.137530000000     0.705960000000    -0.448488   
O170     O      0.493610000000     0.137380000000     0.796850000000    -0.453566   
O171     O      0.440260000000     0.132470000000     0.746790000000    -0.449925   
O172     O      0.561610000000     0.142680000000     0.757970000000    -0.448778   
O173     O      0.555770000000     0.213330000000     0.754960000000    -0.452674   
O174     O      0.434670000000     0.203180000000     0.744420000000    -0.451269   
O175     O      0.488350000000     0.208030000000     0.796080000000    -0.44848    
O176     O      0.502300000000     0.208100000000     0.704980000000    -0.452175   
O177     O      0.133990000000     0.511970000000     0.540860000000    -0.446303   
O178     O      0.135190000000     0.481010000000     0.952010000000    -0.449787   
O179     O      0.127020000000     0.437950000000     0.506930000000    -0.45133    
O180     O      0.141880000000     0.555130000000     0.984070000000    -0.448645   
O181     O      0.212540000000     0.547730000000     0.488400000000    -0.449477   
O182     O      0.197650000000     0.430190000000     0.011110000000    -0.44484    
O183     O      0.205870000000     0.473540000000     0.954510000000    -0.446661   
O184     O      0.204670000000     0.504370000000     0.543230000000    -0.451304   
O185     O      0.135830000000     0.481690000000     0.792640000000    -0.447763   
O186     O      0.135630000000     0.495220000000     0.701550000000    -0.452219   
O187     O      0.140890000000     0.428110000000     0.740840000000    -0.450773   
O188     O      0.130800000000     0.548790000000     0.751420000000    -0.451591   
O189     O      0.201810000000     0.554210000000     0.754100000000    -0.449787   
O190     O      0.211910000000     0.433440000000     0.743350000000    -0.450168   
O191     O      0.206560000000     0.500760000000     0.702230000000    -0.445138   
O192     O      0.206770000000     0.486960000000     0.793520000000    -0.449614   
O193     O      0.767350000000     0.832450000000     0.002010000000    -0.450003   
O194     O      0.888590000000     0.840100000000     0.991540000000    -0.45275    
O195     O      0.830440000000     0.776090000000     0.000210000000    -0.447443   
O196     O      0.824220000000     0.897960000000     0.993920000000    -0.449801   
O197     O      0.832950000000     0.902780000000     0.546560000000    -0.453906   
O198     O      0.840030000000     0.781610000000     0.552860000000    -0.450652   
O199     O      0.897070000000     0.845040000000     0.544190000000    -0.447834   
O200     O      0.774770000000     0.840160000000     0.554730000000    -0.444356   
O201     O      0.780930000000     0.832770000000     0.732170000000    -0.449206   
O202     O      0.901680000000     0.850820000000     0.727500000000    -0.452136   
O203     O      0.851040000000     0.782160000000     0.734970000000    -0.44582    
O204     O      0.832320000000     0.902790000000     0.724850000000    -0.443162   
O205     O      0.841170000000     0.910700000000     0.777260000000    -0.45393    
O206     O      0.844090000000     0.789940000000     0.787650000000    -0.450886   
O207     O      0.904800000000     0.851970000000     0.780600000000    -0.447401   
O208     O      0.782020000000     0.849590000000     0.783900000000    -0.450104   
O209     O      0.778050000000     0.185100000000     0.546050000000    -0.452226   
O210     O      0.896250000000     0.156450000000     0.537850000000    -0.454399   
O211     O      0.852710000000     0.230730000000     0.540670000000    -0.447553   
O212     O      0.822580000000     0.112220000000     0.542600000000    -0.452145   
O213     O      0.815550000000     0.112490000000     0.989680000000    -0.452439   
O214     O      0.844190000000     0.230890000000     0.987780000000    -0.455706   
O215     O      0.890050000000     0.156890000000     0.984880000000    -0.449535   
O216     O      0.771400000000     0.187450000000     0.993010000000    -0.45121    
O217     O      0.827580000000     0.245540000000     0.723860000000    -0.446272   
O218     O      0.835840000000     0.123160000000     0.718480000000    -0.443743   
O219     O      0.770940000000     0.181480000000     0.723270000000    -0.452592   
O220     O      0.892740000000     0.188820000000     0.718870000000    -0.451947   
O221     O      0.896880000000     0.185430000000     0.771900000000    -0.453896   
O222     O      0.774840000000     0.174740000000     0.776240000000    -0.449701   
O223     O      0.840890000000     0.120100000000     0.771450000000    -0.457077   
O224     O      0.832800000000     0.240960000000     0.776910000000    -0.453444   
O225     O      0.171260000000     0.219410000000     0.532250000000    -0.448342   
O226     O      0.170320000000     0.097660000000     0.525980000000    -0.45094    
O227     O      0.231100000000     0.157540000000     0.527220000000    -0.451386   
O228     O      0.108640000000     0.158460000000     0.530790000000    -0.448836   
O229     O      0.105800000000     0.158110000000     0.977660000000    -0.452626   
O230     O      0.227700000000     0.170730000000     0.974940000000    -0.450814   
O231     O      0.172600000000     0.102910000000     0.972980000000    -0.445697   
O232     O      0.159990000000     0.224250000000     0.979780000000    -0.451293   
O233     O      0.179430000000     0.214100000000     0.760370000000    -0.450815   
O234     O      0.160220000000     0.094210000000     0.755540000000    -0.456545   
O235     O      0.229950000000     0.144030000000     0.753570000000    -0.450589   
O236     O      0.109210000000     0.162390000000     0.761960000000    -0.449981   
O237     O      0.102970000000     0.160360000000     0.709010000000    -0.454102   
O238     O      0.224770000000     0.157680000000     0.701430000000    -0.449918   
O239     O      0.161040000000     0.097610000000     0.702440000000    -0.448046   
O240     O      0.164630000000     0.219540000000     0.708430000000    -0.449948   
O241     O      0.231940000000     0.822160000000     0.510080000000    -0.450732   
O242     O      0.110640000000     0.820500000000     0.522990000000    -0.449401   
O243     O      0.173500000000     0.761160000000     0.514450000000    -0.450689   
O244     O      0.170000000000     0.883130000000     0.518420000000    -0.44879    
O245     O      0.159710000000     0.886220000000     0.965870000000    -0.448452   
O246     O      0.161520000000     0.764130000000     0.961960000000    -0.445923   
O247     O      0.100410000000     0.823640000000     0.970440000000    -0.447207   
O248     O      0.222090000000     0.827440000000     0.957440000000    -0.444157   
O249     O      0.167880000000     0.759240000000     0.712050000000    -0.451106   
O250     O      0.171300000000     0.880870000000     0.705590000000    -0.449148   
O251     O      0.231070000000     0.818010000000     0.704140000000    -0.446818   
O252     O      0.109020000000     0.821510000000     0.713700000000    -0.450059   
O253     O      0.116720000000     0.819260000000     0.766520000000    -0.450233   
O254     O      0.237620000000     0.832010000000     0.756150000000    -0.453252   
O255     O      0.171450000000     0.885140000000     0.758660000000    -0.454667   
O256     O      0.184380000000     0.764190000000     0.763730000000    -0.449599   


