data_structure

_audit_creation_method RASPA-1.0
_audit_creation_date 2023-5-22
_audit_author_name 'Poobodin Mano'

_cell_length_a    31.2711
_cell_length_b    31.1158
_cell_length_c    27.4467
_cell_angle_alpha 90.0006
_cell_angle_beta  89.9981
_cell_angle_gamma 89.9955
_cell_volume      26706.3

_symmetry_cell_setting          triclinic
_symmetry_space_group_name_Hall 'P 1'
_symmetry_space_group_name_H-M  'P 1'
_symmetry_Int_Tables_number     1

_symmetry_equiv_pos_as_xyz 'x,y,z'

loop_
_atom_site_label
_atom_site_type_symbol
_atom_site_fract_x
_atom_site_fract_y
_atom_site_fract_z
_atom_site_charge
C1       C      0.411940000000     0.287950000000     0.067210000000     0.430175   
C2       C      0.523840000000     0.278740000000     0.932810000000     0.430776   
C3       C      0.410320000000     0.282470000000     0.936400000000     0.430528   
C4       C      0.527330000000     0.285010000000     0.065840000000     0.429097   
C5       C      0.180820000000     0.514440000000     0.979110000000     0.426491   
C6       C      0.189150000000     0.631690000000     0.108890000000     0.42865    
C7       C      0.183220000000     0.516590000000     0.112680000000     0.430615   
C8       C      0.187740000000     0.629710000000     0.978660000000     0.430203   
C9       C      0.420620000000     0.851490000000     0.953510000000     0.427806   
C10      C      0.531540000000     0.850170000000     0.090040000000     0.428679   
C11      C      0.417310000000     0.849400000000     0.086390000000     0.42816    
C12      C      0.535670000000     0.852430000000     0.958350000000     0.427873   
C13      C      0.758570000000     0.515430000000     0.044810000000     0.428091   
C14      C      0.760470000000     0.633250000000     0.915500000000     0.429346   
C15      C      0.761100000000     0.518310000000     0.913190000000     0.430245   
C16      C      0.758250000000     0.631580000000     0.047460000000     0.428742   
C17      C      0.258590000000     0.011250000000     0.468720000000     0.428211   
C18      C      0.252800000000     0.127300000000     0.599850000000     0.429221   
C19      C      0.255470000000     0.012450000000     0.601710000000     0.429582   
C20      C      0.256680000000     0.127040000000     0.468970000000     0.429747   
C21      C      0.919630000000     0.796850000000     0.590380000000     0.42873    
C22      C      0.028970000000     0.795400000000     0.452350000000     0.429017   
C23      C      0.913350000000     0.795050000000     0.458740000000     0.428709   
C24      C      0.034810000000     0.797150000000     0.582690000000     0.429424   
C25      C      0.694990000000     0.132080000000     0.544950000000     0.427083   
C26      C      0.691010000000     0.012740000000     0.417280000000     0.428978   
C27      C      0.690160000000     0.126820000000     0.412290000000     0.429288   
C28      C      0.694910000000     0.016030000000     0.549120000000     0.42908    
C29      C      0.907670000000     0.347970000000     0.558890000000     0.42985    
C30      C      0.033540000000     0.355580000000     0.441430000000     0.430346   
C31      C      0.920630000000     0.354380000000     0.428190000000     0.428378   
C32      C      0.021570000000     0.351110000000     0.574500000000     0.42644    
C33      C      0.298180000000     0.295310000000     0.216620000000     0.430668   
C34      C      0.173560000000     0.326790000000     0.331010000000     0.42992    
C35      C      0.216580000000     0.376690000000     0.221550000000     0.42896    
C36      C      0.254620000000     0.245390000000     0.324170000000     0.430358   
C37      C      0.750000000000     0.394180000000     0.187630000000     0.428662   
C38      C      0.709760000000     0.261760000000     0.287310000000     0.428316   
C39      C      0.667830000000     0.313930000000     0.177350000000     0.428001   
C40      C      0.790250000000     0.340190000000     0.296740000000     0.428129   
C41      C      0.783330000000     0.332300000000     0.697170000000     0.430418   
C42      C      0.655610000000     0.294910000000     0.804320000000     0.429825   
C43      C      0.702770000000     0.248830000000     0.693950000000     0.427821   
C44      C      0.734460000000     0.376050000000     0.805780000000     0.429488   
C45      C      0.719530000000     0.870500000000     0.308250000000     0.428376   
C46      C      0.755210000000     0.741920000000     0.200110000000     0.429359   
C47      C      0.801590000000     0.790810000000     0.308170000000     0.429235   
C48      C      0.672780000000     0.821770000000     0.199460000000     0.428573   
C49      C      0.778970000000     0.825490000000     0.700970000000     0.427944   
C50      C      0.649670000000     0.856590000000     0.809060000000     0.428584   
C51      C      0.697090000000     0.905920000000     0.701700000000     0.429291   
C52      C      0.731360000000     0.776450000000     0.808970000000     0.428612   
C53      C      0.254230000000     0.896400000000     0.323060000000     0.429015   
C54      C      0.202870000000     0.757210000000     0.243780000000     0.429392   
C55      C      0.171110000000     0.820380000000     0.348570000000     0.429476   
C56      C      0.285480000000     0.833200000000     0.216710000000     0.428374   
C57      C      0.234240000000     0.877250000000     0.726780000000     0.428988   
C58      C      0.197860000000     0.749000000000     0.834630000000     0.430731   
C59      C      0.152050000000     0.798150000000     0.728240000000     0.429863   
C60      C      0.281570000000     0.828310000000     0.836190000000     0.427465   
C61      C      0.266540000000     0.314960000000     0.838880000000     0.429836   
C62      C      0.144650000000     0.338960000000     0.718190000000     0.426672   
C63      C      0.184000000000     0.392710000000     0.830200000000     0.42691    
C64      C      0.228190000000     0.261660000000     0.730300000000     0.428719   
C65      C      0.115580000000     0.376160000000     0.646360000000    -0.00953685 
C66      C      0.087550000000     0.303400000000     0.671930000000    -0.0112034  
C67      C      0.070470000000     0.388980000000     0.630600000000    -0.0101403  
C68      C      0.043750000000     0.315070000000     0.650600000000    -0.0100767  
C69      C      0.063260000000     0.323170000000     0.367310000000    -0.00745602 
C70      C      0.096590000000     0.389680000000     0.402260000000    -0.0100877  
C71      C      0.106260000000     0.300750000000     0.366630000000    -0.00980148 
C72      C      0.141010000000     0.368240000000     0.398980000000    -0.0109202  
C73      C      0.821330000000     0.377590000000     0.367790000000    -0.00995687 
C74      C      0.850680000000     0.306310000000     0.339060000000    -0.0104486  
C75      C      0.867080000000     0.392840000000     0.378050000000    -0.0102026  
C76      C      0.895790000000     0.321320000000     0.351450000000    -0.00915676 
C77      C      0.839830000000     0.377300000000     0.591380000000    -0.0107831  
C78      C      0.867390000000     0.304390000000     0.617350000000    -0.00895745 
C79      C      0.821180000000     0.383610000000     0.642790000000    -0.0101282  
C80      C      0.856130000000     0.314970000000     0.669770000000    -0.009689   
C81      C      0.724710000000     0.178350000000     0.661270000000    -0.0100515  
C82      C      0.654930000000     0.211130000000     0.635650000000    -0.0102388  
C83      C      0.736170000000     0.170050000000     0.608070000000    -0.00967768 
C84      C      0.663190000000     0.196840000000     0.582820000000    -0.0110091  
C85      C      0.722620000000     0.151920000000     0.335630000000    -0.00868971 
C86      C      0.652420000000     0.181850000000     0.363150000000    -0.00996792 
C87      C      0.739200000000     0.196910000000     0.325030000000    -0.0105479  
C88      C      0.668490000000     0.227710000000     0.353610000000    -0.0102168  
C89      C      0.656880000000     0.950470000000     0.376150000000    -0.0103825  
C90      C      0.724960000000     0.982260000000     0.344160000000    -0.00806034 
C91      C      0.676960000000     0.905240000000     0.373740000000    -0.0107185  
C92      C      0.745780000000     0.938210000000     0.343320000000    -0.0100364  
C93      C      0.662740000000     0.952440000000     0.588510000000    -0.0102936  
C94      C      0.733970000000     0.981790000000     0.616690000000    -0.00943945 
C95      C      0.650760000000     0.943130000000     0.641590000000    -0.00950294 
C96      C      0.719490000000     0.976490000000     0.669550000000    -0.0104776  
C97      C      0.136640000000     0.780540000000     0.416280000000    -0.0106682  
C98      C      0.107720000000     0.851830000000     0.388230000000    -0.00874608 
C99      C      0.091370000000     0.761160000000     0.412310000000    -0.0111032  
C100     C      0.063340000000     0.832330000000     0.383120000000    -0.00850891 
C101     C      0.100390000000     0.764170000000     0.616450000000    -0.0102979  
C102     C      0.073970000000     0.836180000000     0.646480000000    -0.00914587 
C103     C      0.113220000000     0.752390000000     0.668730000000    -0.00987359 
C104     C      0.081390000000     0.821570000000     0.698780000000    -0.0102132  
C105     C      0.814720000000     0.782020000000     0.637280000000    -0.0103763  
C106     C      0.845640000000     0.853000000000     0.664960000000    -0.0103738  
C107     C      0.860090000000     0.762980000000     0.635930000000    -0.0103906  
C108     C      0.890360000000     0.833690000000     0.662730000000    -0.00848149 
C109     C      0.839320000000     0.746750000000     0.370390000000    -0.00982954 
C110     C      0.871080000000     0.815700000000     0.339830000000    -0.0103848  
C111     C      0.849380000000     0.760230000000     0.422980000000    -0.0105115  
C112     C      0.875730000000     0.831920000000     0.392010000000    -0.00941316 
C113     C      0.235860000000     0.171870000000     0.350000000000    -0.0101597  
C114     C      0.301620000000     0.207160000000     0.383140000000    -0.00974159 
C115     C      0.219820000000     0.163010000000     0.401380000000    -0.00896514 
C116     C      0.289270000000     0.192770000000     0.434790000000    -0.0108508  
C117     C      0.274010000000     0.228570000000     0.667280000000    -0.0105985  
C118     C      0.215780000000     0.185710000000     0.709970000000    -0.0110969  
C119     C      0.287720000000     0.183640000000     0.649590000000    -0.0107331  
C120     C      0.209140000000     0.164400000000     0.660580000000    -0.00920517 
C121     C      0.291170000000     0.955860000000     0.650340000000    -0.00988471 
C122     C      0.220050000000     0.985580000000     0.675810000000    -0.00898893 
C123     C      0.274850000000     0.910010000000     0.659130000000    -0.00994522 
C124     C      0.203770000000     0.940410000000     0.686290000000    -0.0103632  
C125     C      0.293830000000     0.949220000000     0.429070000000    -0.0113274  
C126     C      0.221960000000     0.977140000000     0.399690000000    -0.0090145  
C127     C      0.304710000000     0.937050000000     0.376160000000    -0.00935764 
C128     C      0.236930000000     0.970660000000     0.347330000000    -0.0105889  
C129     C      0.731740000000     0.467710000000     0.161320000000    -0.0102352  
C130     C      0.799420000000     0.433320000000     0.132050000000    -0.0100472  
C131     C      0.718810000000     0.477900000000     0.109100000000    -0.0091208  
C132     C      0.790440000000     0.449780000000     0.080170000000    -0.0109926  
C133     C      0.790630000000     0.695140000000     0.086890000000    -0.0105505  
C134     C      0.719320000000     0.665860000000     0.114980000000    -0.00938498 
C135     C      0.802100000000     0.705250000000     0.140010000000    -0.00956823 
C136     C      0.733680000000     0.671200000000     0.167790000000    -0.0103032  
C137     C      0.774320000000     0.740760000000     0.873360000000    -0.0106887  
C138     C      0.704860000000     0.708650000000     0.843660000000    -0.00998794 
C139     C      0.794260000000     0.695470000000     0.874110000000    -0.0103362  
C140     C      0.725390000000     0.664420000000     0.843370000000    -0.00807226 
C141     C      0.706260000000     0.442250000000     0.842680000000    -0.00967021 
C142     C      0.777100000000     0.411870000000     0.870320000000    -0.0105319  
C143     C      0.725720000000     0.486930000000     0.841340000000    -0.00796949 
C144     C      0.795980000000     0.457600000000     0.870210000000    -0.010537   
C145     C      0.591420000000     0.884110000000     0.134940000000    -0.0104422  
C146     C      0.561640000000     0.813160000000     0.161740000000    -0.00838285 
C147     C      0.636880000000     0.865230000000     0.135830000000    -0.0103359  
C148     C      0.606390000000     0.793970000000     0.163100000000    -0.0101616  
C149     C      0.344380000000     0.798140000000     0.172380000000    -0.00997616 
C150     C      0.313700000000     0.868150000000     0.142450000000    -0.0100436  
C151     C      0.389270000000     0.813810000000     0.159830000000    -0.00971984 
C152     C      0.359020000000     0.884730000000     0.132250000000    -0.00991511 
C153     C      0.316550000000     0.869600000000     0.902240000000    -0.010482   
C154     C      0.346910000000     0.798800000000     0.873210000000    -0.0106186  
C155     C      0.362270000000     0.887190000000     0.907560000000    -0.0102972  
C156     C      0.391970000000     0.816600000000     0.879640000000    -0.00891395 
C157     C      0.611690000000     0.900570000000     0.871170000000    -0.0099866  
C158     C      0.579420000000     0.832340000000     0.839310000000    -0.0103539  
C159     C      0.599930000000     0.887170000000     0.923360000000    -0.0105966  
C160     C      0.573160000000     0.816000000000     0.891220000000    -0.00947417 
C161     C      0.217660000000     0.681240000000     0.224090000000    -0.0106273  
C162     C      0.150570000000     0.715850000000     0.194030000000    -0.00963665 
C163     C      0.230290000000     0.669070000000     0.172250000000    -0.00886049 
C164     C      0.159460000000     0.698910000000     0.142490000000    -0.0108792  
C165     C      0.239750000000     0.446290000000     0.188330000000    -0.0104856  
C166     C      0.171220000000     0.411520000000     0.158860000000    -0.0106684  
C167     C      0.217610000000     0.489750000000     0.187350000000    -0.00739315 
C168     C      0.149880000000     0.456100000000     0.157400000000    -0.0101152  
C169     C      0.217390000000     0.477190000000     0.912020000000    -0.0100029  
C170     C      0.137900000000     0.466000000000     0.927050000000    -0.0109952  
C171     C      0.205170000000     0.464400000000     0.860000000000    -0.0114346  
C172     C      0.144810000000     0.423000000000     0.900310000000    -0.0108638  
C173     C      0.158750000000     0.696850000000     0.944130000000    -0.0107897  
C174     C      0.227800000000     0.664500000000     0.912740000000    -0.0089112  
C175     C      0.148660000000     0.712580000000     0.892420000000    -0.00964412 
C176     C      0.213960000000     0.675060000000     0.860980000000    -0.0100076  
C177     C      0.376200000000     0.329540000000     0.131560000000    -0.00915386 
C178     C      0.346520000000     0.257960000000     0.104220000000    -0.0102337  
C179     C      0.368630000000     0.316600000000     0.184440000000    -0.0100635  
C180     C      0.334330000000     0.247740000000     0.157010000000    -0.00960005 
C181     C      0.602970000000     0.342240000000     0.137910000000    -0.00988847 
C182     C      0.634120000000     0.271250000000     0.111280000000    -0.0106698  
C183     C      0.558340000000     0.322860000000     0.136300000000    -0.00854487 
C184     C      0.588710000000     0.252050000000     0.109320000000    -0.0103148  
C185     C      0.578150000000     0.239550000000     0.884380000000    -0.00978464 
C186     C      0.548090000000     0.309530000000     0.855110000000    -0.00833734 
C187     C      0.623640000000     0.255450000000     0.873430000000    -0.0101489  
C188     C      0.592700000000     0.326020000000     0.843880000000    -0.0102703  
C189     C      0.334260000000     0.341260000000     0.873680000000    -0.00921462 
C190     C      0.301780000000     0.272080000000     0.903870000000    -0.0109498  
C191     C      0.376770000000     0.318610000000     0.866420000000    -0.00767468 
C192     C      0.345770000000     0.250020000000     0.898990000000    -0.0108609  
H1       H      0.104850000000     0.283500000000     0.644650000000     0.0390171  
H2       H      0.133530000000     0.364650000000     0.613890000000     0.0421661  
H3       H      0.072890000000     0.413160000000     0.600880000000     0.041801   
H4       H      0.082730000000     0.282930000000     0.704680000000     0.0422738  
H5       H      0.029000000000     0.285820000000     0.634480000000     0.0418331  
H6       H      0.022800000000     0.325480000000     0.681140000000     0.0377506  
H7       H      0.132230000000     0.405080000000     0.660850000000     0.0408843  
H8       H      0.053870000000     0.404120000000     0.662070000000     0.0413315  
H9       H      0.091440000000     0.409010000000     0.368700000000     0.039904   
H10      H      0.058370000000     0.338730000000     0.331250000000     0.0390492  
H11      H      0.106710000000     0.276890000000     0.336490000000     0.042688   
H12      H      0.095710000000     0.411650000000     0.434220000000     0.0397701  
H13      H      0.165230000000     0.393120000000     0.389770000000     0.0417066  
H14      H      0.149130000000     0.354870000000     0.435390000000     0.0406218  
H15      H      0.037330000000     0.299070000000     0.372230000000     0.0406661  
H16      H      0.109950000000     0.282710000000     0.401360000000     0.0417926  
H17      H      0.838450000000     0.287170000000     0.370310000000     0.0393163  
H18      H      0.807300000000     0.365050000000     0.402200000000     0.0412162  
H19      H      0.866410000000     0.416100000000     0.408810000000     0.041727   
H20      H      0.852180000000     0.284420000000     0.307090000000     0.0417964  
H21      H      0.915370000000     0.293300000000     0.363050000000     0.0406986  
H22      H      0.910470000000     0.334450000000     0.317670000000     0.0376832  
H23      H      0.801810000000     0.405480000000     0.355600000000     0.0406939  
H24      H      0.879310000000     0.409740000000     0.345180000000     0.0400998  
H25      H      0.840560000000     0.286120000000     0.600630000000     0.0415714  
H26      H      0.813520000000     0.366280000000     0.567170000000     0.0385429  
H27      H      0.789760000000     0.400170000000     0.640110000000     0.0422696  
H28      H      0.896300000000     0.283540000000     0.617380000000     0.0407489  
H29      H      0.851110000000     0.284360000000     0.689890000000     0.0417878  
H30      H      0.883420000000     0.332340000000     0.686750000000     0.0399222  
H31      H      0.851000000000     0.408780000000     0.577020000000     0.0419161  
H32      H      0.843040000000     0.405330000000     0.663120000000     0.0377582  
H33      H      0.634560000000     0.186290000000     0.653220000000     0.0383439  
H34      H      0.708990000000     0.149170000000     0.676340000000     0.0401294  
H35      H      0.757710000000     0.141620000000     0.606340000000     0.0407139  
H36      H      0.636390000000     0.241620000000     0.635600000000     0.0423405  
H37      H      0.632640000000     0.185880000000     0.566250000000     0.0422444  
H38      H      0.673910000000     0.225460000000     0.561880000000     0.0390565  
H39      H      0.754690000000     0.184220000000     0.682040000000     0.0413386  
H40      H      0.753820000000     0.198350000000     0.593620000000     0.0415155  
H41      H      0.635390000000     0.170300000000     0.330090000000     0.0398197  
H42      H      0.708690000000     0.138840000000     0.301420000000     0.037537   
H43      H      0.760950000000     0.195310000000     0.293040000000     0.0424304  
H44      H      0.629370000000     0.182430000000     0.394010000000     0.0411926  
H45      H      0.641260000000     0.247750000000     0.340800000000     0.0408631  
H46      H      0.680210000000     0.241510000000     0.388520000000     0.0416076  
H47      H      0.749780000000     0.130760000000     0.346060000000     0.0406931  
H48      H      0.758680000000     0.207620000000     0.356690000000     0.0398478  
H49      H      0.710710000000     0.988280000000     0.307660000000     0.0384813  
H50      H      0.639010000000     0.956240000000     0.341750000000     0.0396874  
H51      H      0.651780000000     0.881580000000     0.363730000000     0.04112    
H52      H      0.749690000000     0.007330000000     0.350500000000     0.0403459  
H53      H      0.769840000000     0.937230000000     0.313530000000     0.0422798  
H54      H      0.763250000000     0.933660000000     0.378240000000     0.0408125  
H55      H      0.633890000000     0.951830000000     0.407040000000     0.040349   
H56      H      0.689120000000     0.896780000000     0.410580000000     0.0405009  
H57      H      0.752660000000     0.952920000000     0.605840000000     0.0411013  
H58      H      0.675380000000     0.922230000000     0.572340000000     0.0395763  
H59      H      0.630950000000     0.913520000000     0.643450000000     0.0420332  
H60      H      0.755200000000     0.010400000000     0.614140000000     0.0399973  
H61      H      0.748150000000     0.971710000000     0.692910000000     0.0416593  
H62      H      0.703170000000     0.006530000000     0.681250000000     0.0398715  
H63      H      0.633450000000     0.961180000000     0.567790000000     0.0420816  
H64      H      0.630740000000     0.970250000000     0.654830000000     0.0388794  
H65      H      0.110200000000     0.866390000000     0.425130000000     0.0409642  
H66      H      0.141720000000     0.791300000000     0.454480000000     0.0399757  
H67      H      0.087360000000     0.736070000000     0.440810000000     0.041538   
H68      H      0.111870000000     0.878100000000     0.361170000000     0.0410615  
H69      H      0.038640000000     0.857440000000     0.389420000000     0.041342   
H70      H      0.059680000000     0.820710000000     0.345030000000     0.0405104  
H71      H      0.160700000000     0.755330000000     0.407660000000     0.0409235  
H72      H      0.088230000000     0.745620000000     0.376010000000     0.0402531  
H73      H      0.102620000000     0.854140000000     0.633710000000     0.0407517  
H74      H      0.129360000000     0.776390000000     0.597490000000     0.0386926  
H75      H      0.143040000000     0.732950000000     0.668120000000     0.0422502  
H76      H      0.046020000000     0.858310000000     0.645790000000     0.0408446  
H77      H      0.087210000000     0.850380000000     0.721820000000     0.041984   
H78      H      0.051990000000     0.805270000000     0.712160000000     0.0404614  
H79      H      0.089940000000     0.734710000000     0.596870000000     0.0419882  
H80      H      0.087510000000     0.731800000000     0.684170000000     0.0389549  
H81      H      0.839620000000     0.870180000000     0.630100000000     0.0403756  
H82      H      0.806130000000     0.792950000000     0.599960000000     0.0409754  
H83      H      0.861730000000     0.738060000000     0.606940000000     0.0409464  
H84      H      0.844510000000     0.877320000000     0.694600000000     0.0420571  
H85      H      0.913960000000     0.859180000000     0.653580000000     0.0403619  
H86      H      0.898430000000     0.821340000000     0.699620000000     0.037981   
H87      H      0.791800000000     0.756430000000     0.648190000000     0.0410363  
H88      H      0.866620000000     0.747360000000     0.671600000000     0.0396732  
H89      H      0.901360000000     0.799610000000     0.328910000000     0.0399529  
H90      H      0.866200000000     0.726410000000     0.357290000000     0.0387165  
H91      H      0.859430000000     0.731560000000     0.444270000000     0.0419497  
H92      H      0.865880000000     0.843710000000     0.315390000000     0.0418783  
H93      H      0.903120000000     0.854710000000     0.393570000000     0.0405901  
H94      H      0.846150000000     0.849560000000     0.402350000000     0.0409638  
H95      H      0.809960000000     0.726600000000     0.369850000000     0.0421855  
H96      H      0.819300000000     0.772370000000     0.439620000000     0.0391262  
H97      H      0.323730000000     0.182640000000     0.367830000000     0.0381838  
H98      H      0.254540000000     0.143580000000     0.337290000000     0.0394404  
H99      H      0.199610000000     0.133570000000     0.400650000000     0.0403125  
H100     H      0.319430000000     0.238040000000     0.385020000000     0.0423784  
H101     H      0.318590000000     0.182940000000     0.454830000000     0.0423625  
H102     H      0.275780000000     0.221050000000     0.454190000000     0.0393697  
H103     H      0.207830000000     0.175860000000     0.325520000000     0.0426556  
H104     H      0.199670000000     0.190450000000     0.413550000000     0.0418279  
H105     H      0.234510000000     0.163810000000     0.733840000000     0.0399422  
H106     H      0.302190000000     0.245660000000     0.682660000000     0.0389995  
H107     H      0.304920000000     0.166900000000     0.679540000000     0.0405689  
H108     H      0.183930000000     0.190560000000     0.727140000000     0.0422611  
H109     H      0.192210000000     0.133300000000     0.666040000000     0.0388318  
H110     H      0.188270000000     0.185080000000     0.637610000000     0.0434824  
H111     H      0.262670000000     0.247690000000     0.635590000000     0.0432121  
H112     H      0.310450000000     0.187160000000     0.618660000000     0.0403149  
H113     H      0.232710000000     0.999170000000     0.710400000000     0.0380779  
H114     H      0.307640000000     0.967200000000     0.683870000000     0.0402887  
H115     H      0.301890000000     0.889680000000     0.671940000000     0.0406626  
H116     H      0.192900000000     0.006220000000     0.664100000000     0.0411062  
H117     H      0.181270000000     0.941750000000     0.717630000000     0.0422032  
H118     H      0.185200000000     0.929300000000     0.654120000000     0.0395641  
H119     H      0.314780000000     0.955390000000     0.620020000000     0.0410254  
H120     H      0.263170000000     0.896650000000     0.623990000000     0.0415887  
H121     H      0.202850000000     0.948720000000     0.411110000000     0.0421978  
H122     H      0.282830000000     0.919660000000     0.448050000000     0.0401415  
H123     H      0.324050000000     0.907080000000     0.375690000000     0.0421423  
H124     H      0.200870000000     0.005930000000     0.400950000000     0.04027    
H125     H      0.208530000000     0.966750000000     0.323380000000     0.0424917  
H126     H      0.254600000000     0.999880000000     0.335490000000     0.0391269  
H127     H      0.323360000000     0.960170000000     0.447900000000     0.0423196  
H128     H      0.324920000000     0.963160000000     0.360820000000     0.0377972  
H129     H      0.820850000000     0.456940000000     0.150170000000     0.037939   
H130     H      0.749390000000     0.495710000000     0.176500000000     0.0397824  
H131     H      0.698330000000     0.507160000000     0.109300000000     0.0401564  
H132     H      0.817020000000     0.402330000000     0.130080000000     0.0422286  
H133     H      0.820900000000     0.460770000000     0.063380000000     0.0419351  
H134     H      0.778810000000     0.422190000000     0.058100000000     0.0386814  
H135     H      0.702280000000     0.462830000000     0.183330000000     0.0422245  
H136     H      0.699670000000     0.450700000000     0.094400000000     0.0417003  
H137     H      0.700640000000     0.694710000000     0.104020000000     0.0412515  
H138     H      0.778240000000     0.725120000000     0.069960000000     0.0392857  
H139     H      0.821400000000     0.735220000000     0.141600000000     0.0419016  
H140     H      0.698060000000     0.637270000000     0.112490000000     0.0402666  
H141     H      0.704940000000     0.675600000000     0.191130000000     0.0417102  
H142     H      0.750340000000     0.641330000000     0.179450000000     0.0398012  
H143     H      0.820110000000     0.686030000000     0.066730000000     0.041866   
H144     H      0.822550000000     0.678650000000     0.153760000000     0.0384615  
H145     H      0.687920000000     0.712830000000     0.878970000000     0.0408572  
H146     H      0.762710000000     0.748460000000     0.910640000000     0.040569   
H147     H      0.818000000000     0.693520000000     0.904210000000     0.0405187  
H148     H      0.680390000000     0.710230000000     0.814340000000     0.0422858  
H149     H      0.700620000000     0.639450000000     0.850040000000     0.0406133  
H150     H      0.738860000000     0.658690000000     0.806430000000     0.0386477  
H151     H      0.799410000000     0.764550000000     0.863480000000     0.041045   
H152     H      0.811260000000     0.690240000000     0.839020000000     0.0396258  
H153     H      0.766390000000     0.404160000000     0.907950000000     0.0403566  
H154     H      0.690530000000     0.437850000000     0.878680000000     0.0408596  
H155     H      0.700560000000     0.511390000000     0.848530000000     0.0405995  
H156     H      0.802500000000     0.388580000000     0.859920000000     0.0410165  
H157     H      0.820400000000     0.460200000000     0.899520000000     0.0410011  
H158     H      0.812000000000     0.463050000000     0.834560000000     0.0396073  
H159     H      0.680950000000     0.439860000000     0.814360000000     0.0419629  
H160     H      0.738250000000     0.492670000000     0.803970000000     0.038848   
H161     H      0.554000000000     0.825320000000     0.198840000000     0.0383783  
H162     H      0.585090000000     0.899660000000     0.170700000000     0.0398913  
H163     H      0.659770000000     0.890850000000     0.146750000000     0.0410423  
H164     H      0.537980000000     0.787660000000     0.152830000000     0.0405585  
H165     H      0.607890000000     0.769270000000     0.192310000000     0.0421288  
H166     H      0.612140000000     0.777270000000     0.127870000000     0.0404485  
H167     H      0.589470000000     0.909070000000     0.106010000000     0.0409716  
H168     H      0.645280000000     0.854520000000     0.098380000000     0.0407804  
H169     H      0.300480000000     0.854290000000     0.108280000000     0.0409054  
H170     H      0.332400000000     0.778800000000     0.141160000000     0.0390874  
H171     H      0.409080000000     0.786020000000     0.148040000000     0.0415015  
H172     H      0.293150000000     0.895670000000     0.153510000000     0.0411913  
H173     H      0.357950000000     0.907240000000     0.100770000000     0.0406027  
H174     H      0.370450000000     0.902750000000     0.164720000000     0.0411619  
H175     H      0.346060000000     0.776380000000     0.204470000000     0.0415607  
H176     H      0.403960000000     0.826840000000     0.193640000000     0.0387322  
H177     H      0.338560000000     0.780240000000     0.906510000000     0.0403044  
H178     H      0.305640000000     0.857760000000     0.938390000000     0.041247   
H179     H      0.363010000000     0.910960000000     0.937810000000     0.0411948  
H180     H      0.346840000000     0.775860000000     0.842160000000     0.0425154  
H181     H      0.414160000000     0.790000000000     0.889280000000     0.0410453  
H182     H      0.402550000000     0.829820000000     0.843980000000     0.0380315  
H183     H      0.295020000000     0.896250000000     0.890940000000     0.041314   
H184     H      0.371090000000     0.903940000000     0.873210000000     0.0400452  
H185     H      0.549700000000     0.849010000000     0.827500000000     0.0400621  
H186     H      0.585630000000     0.921550000000     0.857240000000     0.0387344  
H187     H      0.589650000000     0.915990000000     0.944260000000     0.0421105  
H188     H      0.584710000000     0.804320000000     0.814900000000     0.0420414  
H189     H      0.545260000000     0.793820000000     0.891800000000     0.0404509  
H190     H      0.602090000000     0.797670000000     0.902380000000     0.0412051  
H191     H      0.641470000000     0.920080000000     0.871760000000     0.0423124  
H192     H      0.629370000000     0.874700000000     0.941140000000     0.0390083  
H193     H      0.129500000000     0.692230000000     0.212690000000     0.0381631  
H194     H      0.199240000000     0.654190000000     0.240280000000     0.0392587  
H195     H      0.249560000000     0.639010000000     0.173470000000     0.0396858  
H196     H      0.132800000000     0.746730000000     0.191800000000     0.0422041  
H197     H      0.128820000000     0.688750000000     0.125480000000     0.042476   
H198     H      0.172110000000     0.726010000000     0.120360000000     0.0393745  
H199     H      0.247170000000     0.685940000000     0.246020000000     0.0426137  
H200     H      0.250530000000     0.695070000000     0.156690000000     0.0414483  
H201     H      0.182720000000     0.403550000000     0.121600000000     0.0414054  
H202     H      0.257520000000     0.442260000000     0.153530000000     0.0418114  
H203     H      0.241440000000     0.515530000000     0.180180000000     0.0398405  
H204     H      0.146840000000     0.387190000000     0.169380000000     0.0418017  
H205     H      0.125900000000     0.456940000000     0.127470000000     0.040384   
H206     H      0.133060000000     0.461420000000     0.192580000000     0.039704   
H207     H      0.263670000000     0.446100000000     0.218280000000     0.0427272  
H208     H      0.203700000000     0.495660000000     0.224040000000     0.0380294  
H209     H      0.117180000000     0.460500000000     0.959410000000     0.040534   
H210     H      0.235950000000     0.450710000000     0.929150000000     0.0429869  
H211     H      0.235020000000     0.458570000000     0.839000000000     0.0422396  
H212     H      0.120640000000     0.488520000000     0.902500000000     0.0416866  
H213     H      0.155660000000     0.398440000000     0.927040000000     0.0440663  
H214     H      0.113850000000     0.411550000000     0.885150000000     0.0392785  
H215     H      0.238530000000     0.505940000000     0.910510000000     0.0395181  
H216     H      0.188030000000     0.491600000000     0.842430000000     0.0402839  
H217     H      0.248810000000     0.690700000000     0.926440000000     0.0416046  
H218     H      0.172900000000     0.724150000000     0.964700000000     0.0391398  
H219     H      0.132180000000     0.744190000000     0.894330000000     0.0424835  
H220     H      0.246630000000     0.634150000000     0.912070000000     0.0403249  
H221     H      0.242990000000     0.678590000000     0.837930000000     0.0421965  
H222     H      0.194690000000     0.647820000000     0.846570000000     0.0396924  
H223     H      0.128430000000     0.688030000000     0.962780000000     0.0424109  
H224     H      0.125960000000     0.689360000000     0.875720000000     0.0382831  
H225     H      0.317680000000     0.270910000000     0.085630000000     0.0388294  
H226     H      0.348280000000     0.348500000000     0.118540000000     0.0412065  
H227     H      0.363720000000     0.346180000000     0.206480000000     0.041761   
H228     H      0.355460000000     0.227710000000     0.085190000000     0.0419282  
H229     H      0.303980000000     0.229140000000     0.157620000000     0.042185   
H230     H      0.359720000000     0.226780000000     0.172510000000     0.0387781  
H231     H      0.405130000000     0.350300000000     0.129760000000     0.0401664  
H232     H      0.397620000000     0.299820000000     0.198220000000     0.0401329  
H233     H      0.642970000000     0.282250000000     0.074080000000     0.0407589  
H234     H      0.609000000000     0.358480000000     0.102480000000     0.0404841  
H235     H      0.534640000000     0.348280000000     0.127210000000     0.0407794  
H236     H      0.657040000000     0.245750000000     0.122440000000     0.0411606  
H237     H      0.587200000000     0.227570000000     0.079830000000     0.0403736  
H238     H      0.582100000000     0.235860000000     0.144640000000     0.0402679  
H239     H      0.604190000000     0.367300000000     0.166760000000     0.0419168  
H240     H      0.550540000000     0.310760000000     0.173380000000     0.0389707  
H241     H      0.534960000000     0.294770000000     0.821370000000     0.0379893  
H242     H      0.566210000000     0.221510000000     0.852160000000     0.0400021  
H243     H      0.643390000000     0.227810000000     0.860980000000     0.040876   
H244     H      0.527010000000     0.336980000000     0.864930000000     0.0407094  
H245     H      0.590920000000     0.347720000000     0.811760000000     0.0425124  
H246     H      0.603720000000     0.345680000000     0.875310000000     0.0402935  
H247     H      0.579120000000     0.217290000000     0.916070000000     0.0408216  
H248     H      0.637900000000     0.268030000000     0.907690000000     0.0413765  
H249     H      0.298090000000     0.283310000000     0.942100000000     0.0398243  
H250     H      0.334260000000     0.356110000000     0.910540000000     0.0416151  
H251     H      0.403450000000     0.342000000000     0.870220000000     0.0404307  
H252     H      0.276190000000     0.248200000000     0.896230000000     0.0417102  
H253     H      0.349250000000     0.225440000000     0.928140000000     0.0409491  
H254     H      0.347030000000     0.233510000000     0.863080000000     0.0396554  
H255     H      0.331030000000     0.367650000000     0.846640000000     0.0419029  
H256     H      0.377690000000     0.305750000000     0.828620000000     0.0394722  
N1       N      0.046640000000     0.350580000000     0.615320000000    -0.169706   
N2       N      0.113940000000     0.341540000000     0.682840000000    -0.169613   
N3       N      0.140750000000     0.332830000000     0.363110000000    -0.170667   
N4       N      0.063360000000     0.356430000000     0.405300000000    -0.171343   
N5       N      0.894550000000     0.355550000000     0.388330000000    -0.170752   
N6       N      0.821610000000     0.343020000000     0.331180000000    -0.170449   
N7       N      0.818220000000     0.342760000000     0.669760000000    -0.171005   
N8       N      0.873980000000     0.344600000000     0.590200000000    -0.170994   
N9       N      0.696870000000     0.163760000000     0.579400000000    -0.169901   
N10      N      0.694910000000     0.214750000000     0.663800000000    -0.170104   
N11      N      0.703850000000     0.227750000000     0.318030000000    -0.17036    
N12      N      0.689000000000     0.153540000000     0.372930000000    -0.170995   
N13      N      0.712980000000     0.904390000000     0.339010000000    -0.170387   
N14      N      0.690770000000     0.982940000000     0.380870000000    -0.171098   
N15      N      0.689220000000     0.940420000000     0.672310000000    -0.170648   
N16      N      0.696250000000     0.985670000000     0.584930000000    -0.170718   
N17      N      0.059190000000     0.795580000000     0.416500000000    -0.170808   
N18      N      0.140280000000     0.817890000000     0.383590000000    -0.171034   
N19      N      0.117240000000     0.791020000000     0.699380000000    -0.17092    
N20      N      0.067570000000     0.798220000000     0.615430000000    -0.170933   
N21      N      0.891230000000     0.797660000000     0.628110000000    -0.170895   
N22      N      0.813020000000     0.819130000000     0.670650000000    -0.170335   
N23      N      0.881450000000     0.794990000000     0.424820000000    -0.170695   
N24      N      0.835850000000     0.784440000000     0.338170000000    -0.170682   
N25      N      0.256560000000     0.158530000000     0.434440000000    -0.170974   
N26      N      0.263770000000     0.209840000000     0.351430000000    -0.170918   
N27      N      0.250230000000     0.157760000000     0.635450000000    -0.171886   
N28      N      0.239470000000     0.226270000000     0.703810000000    -0.171421   
N29      N      0.239390000000     0.910170000000     0.694460000000    -0.1705     
N30      N      0.254870000000     0.984390000000     0.639860000000    -0.170948   
N31      N      0.265720000000     0.933440000000     0.346410000000    -0.170568   
N32      N      0.259290000000     0.981530000000     0.432110000000    -0.170289   
N33      N      0.757360000000     0.483630000000     0.079050000000    -0.170483   
N34      N      0.759870000000     0.429910000000     0.160920000000    -0.17039    
N35      N      0.763490000000     0.707610000000     0.170580000000    -0.170743   
N36      N      0.757100000000     0.661920000000     0.083320000000    -0.170665   
N37      N      0.760310000000     0.663100000000     0.879150000000    -0.171146   
N38      N      0.737820000000     0.742310000000     0.839340000000    -0.170523   
N39      N      0.761350000000     0.489180000000     0.876110000000    -0.171383   
N40      N      0.739990000000     0.409500000000     0.837280000000    -0.170948   
N41      N      0.638860000000     0.827950000000     0.168930000000    -0.170485   
N42      N      0.560320000000     0.849330000000     0.127350000000    -0.17096    
N43      N      0.387930000000     0.848330000000     0.123140000000    -0.170407   
N44      N      0.315010000000     0.834500000000     0.180110000000    -0.170382   
N45      N      0.392140000000     0.851460000000     0.915790000000    -0.17046    
N46      N      0.315380000000     0.833680000000     0.867190000000    -0.169906   
N47      N      0.567390000000     0.852820000000     0.924170000000    -0.170377   
N48      N      0.615230000000     0.862970000000     0.838840000000    -0.170416   
N49      N      0.191610000000     0.664100000000     0.142220000000    -0.170802   
N50      N      0.190490000000     0.719740000000     0.222010000000    -0.170797   
N51      N      0.182940000000     0.489100000000     0.151280000000    -0.171433   
N52      N      0.208110000000     0.411330000000     0.192520000000    -0.170302   
N53      N      0.176860000000     0.426520000000     0.861040000000    -0.170508   
N54      N      0.178930000000     0.485680000000     0.941500000000    -0.17083    
N55      N      0.187510000000     0.714040000000     0.862210000000    -0.171126   
N56      N      0.189860000000     0.661160000000     0.944200000000    -0.171139   
N57      N      0.331910000000     0.287160000000     0.186510000000    -0.171069   
N58      N      0.380590000000     0.290660000000     0.101540000000    -0.171204   
N59      N      0.557250000000     0.286570000000     0.101980000000    -0.170748   
N60      N      0.635330000000     0.308350000000     0.144690000000    -0.170153   
N61      N      0.622980000000     0.290180000000     0.836860000000    -0.170752   
N62      N      0.550100000000     0.276570000000     0.893300000000    -0.171426   
N63      N      0.379800000000     0.282650000000     0.900980000000    -0.171621   
N64      N      0.299380000000     0.309550000000     0.871030000000    -0.17103    
Ni1      Ni     0.469850000000     0.321560000000     0.998890000000     1.01906    
Ni2      Ni     0.467810000000     0.245050000000     0.003100000000     0.984468   
Ni3      Ni     0.223050000000     0.570280000000     0.044270000000     1.0138     
Ni4      Ni     0.146950000000     0.574620000000     0.045420000000     0.986403   
Ni5      Ni     0.476350000000     0.812750000000     0.021090000000     1.00828    
Ni6      Ni     0.475790000000     0.889330000000     0.022660000000     0.985421   
Ni7      Ni     0.721720000000     0.574570000000     0.979690000000     1.01647    
Ni8      Ni     0.797930000000     0.574830000000     0.981360000000     0.983358   
Ni9      Ni     0.294230000000     0.069820000000     0.536010000000     0.983745   
Ni10     Ni     0.218060000000     0.068410000000     0.533200000000     1.01865    
Ni11     Ni     0.973810000000     0.834210000000     0.520350000000     1.00974    
Ni12     Ni     0.974080000000     0.757620000000     0.521610000000     0.983499   
Ni13     Ni     0.730660000000     0.072190000000     0.479820000000     1.01277    
Ni14     Ni     0.654490000000     0.072000000000     0.482920000000     0.983578   
Ni15     Ni     0.970360000000     0.390720000000     0.502950000000     0.981634   
Ni16     Ni     0.972150000000     0.314220000000     0.499220000000     1.01183    
Ni17     Ni     0.212740000000     0.289530000000     0.248950000000     1.00655    
Ni18     Ni     0.258500000000     0.333080000000     0.297690000000     0.997205   
Ni19     Ni     0.752340000000     0.306030000000     0.212460000000     0.996275   
Ni20     Ni     0.706120000000     0.349270000000     0.261030000000     1.00048    
Ni21     Ni     0.741470000000     0.290120000000     0.773930000000     1.00012    
Ni22     Ni     0.696680000000     0.335000000000     0.725530000000     1.00177    
Ni23     Ni     0.715340000000     0.783700000000     0.278700000000     0.995361   
Ni24     Ni     0.758870000000     0.828860000000     0.229190000000     1.00239    
Ni25     Ni     0.692630000000     0.818810000000     0.730070000000     1.00268    
Ni26     Ni     0.736200000000     0.863410000000     0.780200000000     0.993963   
Ni27     Ni     0.204370000000     0.847140000000     0.258620000000     1.00225    
Ni28     Ni     0.252820000000     0.806700000000     0.307460000000     0.995115   
Ni29     Ni     0.238490000000     0.790750000000     0.756840000000     0.999964   
Ni30     Ni     0.195440000000     0.836230000000     0.806550000000     1.00133    
Ni31     Ni     0.227950000000     0.349720000000     0.755220000000     1.00209    
Ni32     Ni     0.182610000000     0.305140000000     0.803260000000     0.994713   
O1       O      0.427830000000     0.322500000000     0.049390000000    -0.455316   
O2       O      0.511220000000     0.315520000000     0.948150000000    -0.45539    
O3       O      0.426420000000     0.318220000000     0.950390000000    -0.457527   
O4       O      0.513150000000     0.320200000000     0.047860000000    -0.455626   
O5       O      0.512820000000     0.248700000000     0.050990000000    -0.444466   
O6       O      0.423030000000     0.246850000000     0.955000000000    -0.445465   
O7       O      0.510330000000     0.244070000000     0.952770000000    -0.448189   
O8       O      0.424890000000     0.251050000000     0.052570000000    -0.448538   
O9       O      0.217320000000     0.526210000000     0.995850000000    -0.451023   
O10      O      0.223620000000     0.614700000000     0.092480000000    -0.452798   
O11      O      0.219120000000     0.529320000000     0.095610000000    -0.456504   
O12      O      0.222350000000     0.612050000000     0.993490000000    -0.456496   
O13      O      0.151480000000     0.618410000000     0.996380000000    -0.447199   
O14      O      0.147910000000     0.530690000000     0.094970000000    -0.445165   
O15      O      0.152540000000     0.618770000000     0.093790000000    -0.447733   
O16      O      0.146260000000     0.530720000000     0.996230000000    -0.446674   
O17      O      0.435120000000     0.815700000000     0.969680000000    -0.451939   
O18      O      0.517510000000     0.814690000000     0.072540000000    -0.452948   
O19      O      0.432370000000     0.814090000000     0.069540000000    -0.451955   
O20      O      0.520520000000     0.816400000000     0.973020000000    -0.452297   
O21      O      0.521070000000     0.887920000000     0.975350000000    -0.446324   
O22      O      0.430770000000     0.885620000000     0.070170000000    -0.446572   
O23      O      0.518270000000     0.886250000000     0.073190000000    -0.446179   
O24      O      0.433340000000     0.887190000000     0.971920000000    -0.445366   
O25      O      0.723400000000     0.530820000000     0.028420000000    -0.454997   
O26      O      0.724840000000     0.618110000000     0.930860000000    -0.45525    
O27      O      0.725300000000     0.532620000000     0.929080000000    -0.455323   
O28      O      0.723100000000     0.616690000000     0.030370000000    -0.454081   
O29      O      0.794280000000     0.618070000000     0.031180000000    -0.446934   
O30      O      0.796470000000     0.531700000000     0.931300000000    -0.446956   
O31      O      0.796010000000     0.619750000000     0.933180000000    -0.44537    
O32      O      0.794580000000     0.529690000000     0.029220000000    -0.445224   
O33      O      0.293690000000     0.025830000000     0.486530000000    -0.444456   
O34      O      0.289360000000     0.113580000000     0.585280000000    -0.445579   
O35      O      0.291300000000     0.025820000000     0.584850000000    -0.447913   
O36      O      0.292120000000     0.114110000000     0.487360000000    -0.44768    
O37      O      0.221110000000     0.110750000000     0.482980000000    -0.454911   
O38      O      0.220110000000     0.026430000000     0.584150000000    -0.453561   
O39      O      0.218230000000     0.112100000000     0.581740000000    -0.457007   
O40      O      0.222530000000     0.025030000000     0.484380000000    -0.455679   
O41      O      0.933610000000     0.832320000000     0.572820000000    -0.453122   
O42      O      0.014240000000     0.831180000000     0.468240000000    -0.452652   
O43      O      0.928780000000     0.830940000000     0.473420000000    -0.453786   
O44      O      0.018890000000     0.832540000000     0.567190000000    -0.453435   
O45      O      0.020170000000     0.761000000000     0.567690000000    -0.446226   
O46      O      0.928040000000     0.759420000000     0.475260000000    -0.446661   
O47      O      0.015850000000     0.759680000000     0.470270000000    -0.445181   
O48      O      0.932460000000     0.760780000000     0.573080000000    -0.446342   
O49      O      0.729840000000     0.116640000000     0.527760000000    -0.454004   
O50      O      0.726830000000     0.027940000000     0.431940000000    -0.455171   
O51      O      0.726280000000     0.113230000000     0.428150000000    -0.453048   
O52      O      0.729900000000     0.030760000000     0.531420000000    -0.452515   
O53      O      0.658740000000     0.029460000000     0.533260000000    -0.447988   
O54      O      0.655160000000     0.114170000000     0.431920000000    -0.447684   
O55      O      0.655700000000     0.026400000000     0.435400000000    -0.444366   
O56      O      0.658710000000     0.117770000000     0.530160000000    -0.443517   
O57      O      0.921870000000     0.385000000000     0.545960000000    -0.444196   
O58      O      0.018690000000     0.390750000000     0.459140000000    -0.442186   
O59      O      0.931860000000     0.389580000000     0.448750000000    -0.44888    
O60      O      0.008920000000     0.387150000000     0.557060000000    -0.446964   
O61      O      0.009840000000     0.315660000000     0.554620000000    -0.447309   
O62      O      0.934270000000     0.318190000000     0.444350000000    -0.450674   
O63      O      0.018660000000     0.319260000000     0.455120000000    -0.457304   
O64      O      0.925160000000     0.313590000000     0.542950000000    -0.458962   
O65      O      0.261500000000     0.278370000000     0.208110000000    -0.449459   
O66      O      0.167890000000     0.302610000000     0.293750000000    -0.453622   
O67      O      0.199340000000     0.340240000000     0.212160000000    -0.45094    
O68      O      0.228160000000     0.242060000000     0.288830000000    -0.456487   
O69      O      0.271860000000     0.281810000000     0.334190000000    -0.446858   
O70      O      0.242800000000     0.380560000000     0.257220000000    -0.451009   
O71      O      0.210120000000     0.344040000000     0.339020000000    -0.449409   
O72      O      0.303490000000     0.320200000000     0.253240000000    -0.454127   
O73      O      0.767030000000     0.357710000000     0.177400000000    -0.446542   
O74      O      0.735800000000     0.258120000000     0.251510000000    -0.452102   
O75      O      0.704350000000     0.296290000000     0.169870000000    -0.447155   
O76      O      0.796510000000     0.317160000000     0.258730000000    -0.451897   
O77      O      0.753990000000     0.358510000000     0.303840000000    -0.448089   
O78      O      0.661880000000     0.337860000000     0.214740000000    -0.451343   
O79      O      0.691710000000     0.297920000000     0.296400000000    -0.448979   
O80      O      0.723010000000     0.397330000000     0.222530000000    -0.453575   
O81      O      0.787670000000     0.305750000000     0.732460000000    -0.455229   
O82      O      0.691870000000     0.277040000000     0.812490000000    -0.449868   
O83      O      0.728110000000     0.244070000000     0.730290000000    -0.450591   
O84      O      0.752600000000     0.339750000000     0.813950000000    -0.447637   
O85      O      0.709700000000     0.380830000000     0.769030000000    -0.454382   
O86      O      0.685310000000     0.285410000000     0.685580000000    -0.447931   
O87      O      0.650620000000     0.319780000000     0.767560000000    -0.453958   
O88      O      0.746650000000     0.348770000000     0.687620000000    -0.448733   
O89      O      0.702580000000     0.833790000000     0.317370000000    -0.44694    
O90      O      0.730080000000     0.737200000000     0.236570000000    -0.452014   
O91      O      0.765570000000     0.772750000000     0.317430000000    -0.447167   
O92      O      0.668730000000     0.796690000000     0.236200000000    -0.451313   
O93      O      0.708790000000     0.839870000000     0.190430000000    -0.448989   
O94      O      0.805470000000     0.815890000000     0.271460000000    -0.453876   
O95      O      0.771770000000     0.778750000000     0.190770000000    -0.448709   
O96      O      0.744190000000     0.875250000000     0.271380000000    -0.453456   
O97      O      0.742880000000     0.807660000000     0.691620000000    -0.448757   
O98      O      0.645850000000     0.831830000000     0.772060000000    -0.453574   
O99      O      0.680340000000     0.869250000000     0.691960000000    -0.448801   
O100     O      0.706730000000     0.772060000000     0.772010000000    -0.453291   
O101     O      0.748500000000     0.812990000000     0.818450000000    -0.447235   
O102     O      0.721990000000     0.910310000000     0.738400000000    -0.451759   
O103     O      0.685760000000     0.874360000000     0.818740000000    -0.446138   
O104     O      0.782970000000     0.850420000000     0.737860000000    -0.450587   
O105     O      0.225210000000     0.897670000000     0.290130000000    -0.452411   
O106     O      0.186000000000     0.793160000000     0.231080000000    -0.447638   
O107     O      0.163330000000     0.841360000000     0.309460000000    -0.454415   
O108     O      0.249060000000     0.851450000000     0.210930000000    -0.450135   
O109     O      0.293840000000     0.812590000000     0.256030000000    -0.449117   
O110     O      0.207580000000     0.802270000000     0.355000000000    -0.446091   
O111     O      0.232150000000     0.756180000000     0.276320000000    -0.45403    
O112     O      0.271210000000     0.860430000000     0.335300000000    -0.447735   
O113     O      0.251440000000     0.840590000000     0.718200000000    -0.449572   
O114     O      0.223250000000     0.744320000000     0.798450000000    -0.455102   
O115     O      0.188010000000     0.780210000000     0.718400000000    -0.44781    
O116     O      0.285350000000     0.803250000000     0.799360000000    -0.450483   
O117     O      0.245770000000     0.846900000000     0.845090000000    -0.448352   
O118     O      0.148560000000     0.823450000000     0.764790000000    -0.454547   
O119     O      0.182300000000     0.786110000000     0.844830000000    -0.448846   
O120     O      0.209990000000     0.882480000000     0.763940000000    -0.452173   
O121     O      0.272100000000     0.338930000000     0.801480000000    -0.45483    
O122     O      0.180450000000     0.358340000000     0.712130000000    -0.449916   
O123     O      0.209930000000     0.397180000000     0.794370000000    -0.451213   
O124     O      0.243860000000     0.298680000000     0.719810000000    -0.447899   
O125     O      0.201390000000     0.257620000000     0.765250000000    -0.454042   
O126     O      0.166750000000     0.356050000000     0.838830000000    -0.447102   
O127     O      0.138540000000     0.315240000000     0.755800000000    -0.447187   
O128     O      0.230350000000     0.296720000000     0.846450000000    -0.44719    


