data_structure

_audit_creation_method RASPA-1.0
_audit_creation_date 2023-6-5
_audit_author_name 'Poobodin Mano'

_cell_length_a    34.0698
_cell_length_b    34.6305
_cell_length_c    40.1657
_cell_angle_alpha 89.981
_cell_angle_beta  90.019
_cell_angle_gamma 119.98
_cell_volume      41048.9

_symmetry_cell_setting          triclinic
_symmetry_space_group_name_Hall 'P 1'
_symmetry_space_group_name_H-M  'P 1'
_symmetry_Int_Tables_number     1

_symmetry_equiv_pos_as_xyz 'x,y,z'

loop_
_atom_site_label
_atom_site_type_symbol
_atom_site_fract_x
_atom_site_fract_y
_atom_site_fract_z
_atom_site_charge
C1       C      0.852710000000     0.634470000000     0.264910000000     0.431432   
C2       C      0.825000000000     0.641650000000     0.388630000000     0.430974   
C3       C      0.752440000000     0.600030000000     0.317290000000     0.441825   
C4       C      0.923560000000     0.675980000000     0.333920000000     0.439867   
C5       C      0.139230000000     0.796670000000     0.466380000000     0.430984   
C6       C      0.195940000000     0.854000000000     0.349170000000     0.438243   
C7       C      0.247800000000     0.877450000000     0.429510000000     0.44241    
C8       C      0.088460000000     0.773920000000     0.385760000000     0.431531   
C9       C      0.498140000000     0.026340000000     0.036430000000     0.431824   
C10      C      0.521370000000     0.018960000000     0.412100000000     0.432377   
C11      C      0.596370000000     0.065040000000     0.981910000000     0.441465   
C12      C      0.424450000000     0.980270000000     0.468110000000     0.430534   
C13      C      0.157840000000     0.334230000000     0.207340000000     0.426934   
C14      C      0.198710000000     0.335890000000     0.084880000000     0.443289   
C15      C      0.261050000000     0.369750000000     0.162540000000     0.430609   
C16      C      0.094640000000     0.299970000000     0.129070000000     0.427213   
C17      C      0.870280000000     0.211350000000     0.013200000000     0.441412   
C18      C      0.802320000000     0.147890000000     0.127500000000     0.427437   
C19      C      0.757650000000     0.140790000000     0.044450000000     0.427788   
C20      C      0.914940000000     0.218610000000     0.097590000000     0.441257   
C21      C      0.521820000000     0.507220000000     0.186480000000     0.435916   
C22      C      0.481000000000     0.457530000000     0.307540000000     0.443378   
C23      C      0.417750000000     0.441120000000     0.230860000000     0.440033   
C24      C      0.585320000000     0.523800000000     0.262750000000     0.429984   
C25      C      0.145570000000     0.336310000000     0.338690000000     0.442986   
C26      C      0.208580000000     0.333660000000     0.453490000000     0.429565   
C27      C      0.222830000000     0.301880000000     0.371470000000     0.427798   
C28      C      0.131850000000     0.368310000000     0.421670000000     0.428831   
C29      C      0.355280000000     0.144620000000     0.396600000000     0.443972   
C30      C      0.363770000000     0.210370000000     0.281280000000     0.444024   
C31      C      0.319830000000     0.219230000000     0.360460000000     0.440945   
C32      C      0.398660000000     0.136080000000     0.317980000000     0.440596   
C33      C      0.990730000000     0.517180000000     0.416340000000     0.426793   
C34      C      0.991210000000     0.454730000000     0.031610000000     0.44268    
C35      C      0.033960000000     0.449040000000     0.450050000000     0.441616   
C36      C      0.947130000000     0.522060000000     0.996880000000     0.439593   
C37      C      0.673580000000     0.857650000000     0.089190000000     0.440897   
C38      C      0.670990000000     0.808820000000     0.209960000000     0.434949   
C39      C      0.700340000000     0.781480000000     0.129200000000     0.429018   
C40      C      0.644150000000     0.885170000000     0.169760000000     0.443212   
C41      C      0.835940000000     0.634180000000     0.132600000000     0.447868   
C42      C      0.788310000000     0.642890000000     0.014000000000     0.446623   
C43      C      0.771130000000     0.676700000000     0.096800000000     0.443397   
C44      C      0.855930000000     0.600710000000     0.052670000000     0.429642   
C45      C      0.553930000000     0.018200000000     0.286620000000     0.443995   
C46      C      0.498490000000     0.027450000000     0.170850000000     0.440157   
C47      C      0.483870000000     0.059880000000     0.252920000000     0.429051   
C48      C      0.566810000000     0.984980000000     0.203100000000     0.429247   
C49      C      0.354870000000     0.154140000000     0.027690000000     0.428056   
C50      C      0.363560000000     0.199970000000     0.149430000000     0.427122   
C51      C      0.397760000000     0.257950000000     0.069050000000     0.426919   
C52      C      0.320030000000     0.095640000000     0.107410000000     0.428354   
C53      C      0.551390000000     0.541540000000     0.057590000000     0.427461   
C54      C      0.502050000000     0.479740000000     0.439980000000     0.425627   
C55      C      0.484290000000     0.432550000000     0.024490000000     0.440126   
C56      C      0.567760000000     0.588190000000     0.472720000000     0.439935   
C57      C      0.203590000000     0.866040000000     0.215690000000     0.429873   
C58      C      0.153410000000     0.810430000000     0.097200000000     0.444963   
C59      C      0.131230000000     0.758890000000     0.178780000000     0.4425     
C60      C      0.224970000000     0.917370000000     0.133110000000     0.440845   
C61      C      0.998510000000     0.523480000000     0.283010000000     0.441602   
C62      C      0.992620000000     0.473550000000     0.162450000000     0.424593   
C63      C      0.957380000000     0.419480000000     0.244890000000     0.426353   
C64      C      0.035320000000     0.579750000000     0.202250000000     0.430308   
C65      C      0.806610000000     0.145430000000     0.260820000000     0.441037   
C66      C      0.851120000000     0.193200000000     0.381930000000     0.42431    
C67      C      0.870040000000     0.249380000000     0.300460000000     0.438205   
C68      C      0.787080000000     0.087880000000     0.340900000000     0.429291   
C69      C      0.679180000000     0.870300000000     0.456800000000     0.427352   
C70      C      0.671400000000     0.800650000000     0.342910000000     0.426133   
C71      C      0.645630000000     0.760100000000     0.428550000000     0.427608   
C72      C      0.705050000000     0.911210000000     0.371550000000     0.440803   
C73      C      0.791840000000     0.022830000000     0.360720000000    -0.0125037  
C74      C      0.716770000000     0.020470000000     0.360020000000    -0.0631823  
C75      C      0.769450000000     0.976580000000     0.345320000000    -0.00771379 
C76      C      0.694140000000     0.972310000000     0.346550000000     0.16617    
C77      C      0.963750000000     0.359980000000     0.274090000000    -0.0136959  
C78      C      0.891240000000     0.361810000000     0.275110000000    -0.0638701  
C79      C      0.936870000000     0.309070000000     0.272020000000    -0.00861751 
C80      C      0.863870000000     0.310940000000     0.273100000000     0.165715   
C81      C      0.105510000000     0.645870000000     0.182560000000    -0.0129023  
C82      C      0.032330000000     0.646730000000     0.183480000000    -0.0622927  
C83      C      0.129190000000     0.690970000000     0.199840000000    -0.00724694 
C84      C      0.057200000000     0.693880000000     0.198880000000     0.165143   
C85      C      0.658050000000     0.702780000000     0.456840000000    -0.0148926  
C86      C      0.580600000000     0.694530000000     0.453960000000    -0.0655931  
C87      C      0.636900000000     0.652570000000     0.448800000000    -0.00939266 
C88      C      0.561560000000     0.647340000000     0.440970000000     0.168567   
C89      C      0.322790000000     0.028510000000     0.126720000000    -0.0154687  
C90      C      0.249230000000     0.029030000000     0.125200000000    -0.0655209  
C91      C      0.297920000000     0.980490000000     0.112810000000    -0.0072549  
C92      C      0.227060000000     0.984450000000     0.107200000000     0.168498   
C93      C      0.465980000000     0.322540000000     0.045610000000    -0.0138474  
C94      C      0.390780000000     0.319720000000     0.044490000000    -0.0641702  
C95      C      0.489360000000     0.372270000000     0.053220000000    -0.00816501 
C96      C      0.414760000000     0.370090000000     0.051360000000     0.166267   
C97      C      0.710780000000     0.793690000000     0.293350000000    -0.0138689  
C98      C      0.627120000000     0.754510000000     0.294640000000    -0.0610369  
C99      C      0.712430000000     0.819640000000     0.262130000000    -0.00636801 
C100     C      0.625250000000     0.774260000000     0.260640000000     0.163395   
C101     C      0.722410000000     0.912400000000     0.006840000000    -0.0118064  
C102     C      0.639180000000     0.879060000000     0.005260000000    -0.0629191  
C103     C      0.719730000000     0.887630000000     0.039080000000    -0.00865024 
C104     C      0.633010000000     0.850730000000     0.036380000000     0.166364   
C105     C      0.685710000000     0.708880000000     0.105380000000    -0.0151226  
C106     C      0.765370000000     0.773130000000     0.112810000000    -0.0665671  
C107     C      0.701970000000     0.676530000000     0.116830000000    -0.00819836 
C108     C      0.778190000000     0.741540000000     0.129210000000     0.170084   
C109     C      0.559920000000     0.917520000000     0.176870000000    -0.0127671  
C110     C      0.635510000000     0.987270000000     0.179250000000    -0.0605918  
C111     C      0.580090000000     0.891130000000     0.191740000000    -0.00619381 
C112     C      0.657450000000     0.959660000000     0.190560000000     0.167685   
C113     C      0.948800000000     0.520570000000     0.367010000000    -0.0121456  
C114     C      0.032290000000     0.568540000000     0.369820000000    -0.0623788  
C115     C      0.951870000000     0.503300000000     0.332690000000    -0.00819184 
C116     C      0.038540000000     0.550100000000     0.336680000000     0.166673   
C117     C      0.949490000000     0.444470000000     0.110280000000    -0.0143562  
C118     C      0.035640000000     0.479990000000     0.111610000000    -0.066877   
C119     C      0.948340000000     0.414650000000     0.081570000000    -0.00803252 
C120     C      0.031980000000     0.450250000000     0.082140000000     0.169584   
C121     C      0.929720000000     0.605090000000     0.041930000000    -0.0137906  
C122     C      0.857850000000     0.531450000000     0.041930000000    -0.0636219  
C123     C      0.946380000000     0.590860000000     0.011480000000    -0.00874632 
C124     C      0.873150000000     0.517360000000     0.010650000000     0.166055   
C125     C      0.312150000000     0.129900000000     0.475080000000    -0.0133923  
C126     C      0.398110000000     0.162900000000     0.476670000000    -0.0668881  
C127     C      0.310460000000     0.101820000000     0.445040000000    -0.008464   
C128     C      0.393800000000     0.134600000000     0.446200000000     0.169646   
C129     C      0.320780000000     0.190140000000     0.200820000000    -0.0156599  
C130     C      0.407030000000     0.226130000000     0.201560000000    -0.0640003  
C131     C      0.324200000000     0.216920000000     0.231970000000    -0.00413441 
C132     C      0.408060000000     0.254130000000     0.231550000000     0.166672   
C133     C      0.483890000000     0.128170000000     0.271170000000    -0.014105   
C134     C      0.410990000000     0.054960000000     0.268320000000    -0.0614667  
C135     C      0.470030000000     0.136900000000     0.305290000000    -0.00735244 
C136     C      0.396970000000     0.064630000000     0.302140000000     0.168612   
C137     C      0.059630000000     0.359810000000     0.443760000000    -0.0143564  
C138     C      0.130750000000     0.434380000000     0.443940000000    -0.0645189  
C139     C      0.033620000000     0.381530000000     0.428950000000    -0.00789363 
C140     C      0.105580000000     0.455140000000     0.427010000000     0.167989   
C141     C      0.226560000000     0.235500000000     0.353400000000    -0.0125558  
C142     C      0.297240000000     0.310130000000     0.355480000000    -0.0632435  
C143     C      0.248420000000     0.216400000000     0.376130000000    -0.00742811 
C144     C      0.320380000000     0.290050000000     0.376880000000     0.164719   
C145     C      0.465190000000     0.484570000000     0.389000000000    -0.0158053  
C146     C      0.516920000000     0.451030000000     0.388250000000    -0.0640804  
C147     C      0.440360000000     0.455820000000     0.358840000000    -0.00427262 
C148     C      0.489050000000     0.421180000000     0.359030000000     0.166662   
C149     C      0.589190000000     0.539420000000     0.109440000000    -0.0142807  
C150     C      0.540980000000     0.574370000000     0.109420000000    -0.0586936  
C151     C      0.557350000000     0.503770000000     0.134220000000    -0.00659057 
C152     C      0.509340000000     0.541040000000     0.135560000000     0.166713   
C153     C      0.837700000000     0.221260000000     0.434680000000    -0.0142996  
C154     C      0.887590000000     0.185710000000     0.432490000000    -0.0666152  
C155     C      0.867460000000     0.251120000000     0.463170000000    -0.00845949 
C156     C      0.914560000000     0.215140000000     0.462060000000     0.168745   
C157     C      0.757290000000     0.145100000000     0.177020000000    -0.0121202  
C158     C      0.793090000000     0.098060000000     0.174790000000    -0.0652214  
C159     C      0.778830000000     0.163820000000     0.210940000000    -0.00846158 
C160     C      0.819240000000     0.118250000000     0.207260000000     0.167653   
C161     C      0.131040000000     0.293540000000     0.260360000000    -0.0137724  
C162     C      0.170130000000     0.378450000000     0.258190000000    -0.0667177  
C163     C      0.102280000000     0.294370000000     0.289360000000    -0.0081015  
C164     C      0.141380000000     0.376790000000     0.288070000000     0.168988   
C165     C      0.210190000000     0.291650000000     0.002960000000    -0.0111102  
C166     C      0.255910000000     0.374010000000     0.002130000000    -0.0637139  
C167     C      0.184900000000     0.292320000000     0.034080000000    -0.00853092 
C168     C      0.230770000000     0.377870000000     0.032560000000     0.166487   
C169     C      0.029720000000     0.307880000000     0.109420000000    -0.0149094  
C170     C      0.024320000000     0.232550000000     0.111550000000    -0.0659466  
C171     C      0.980350000000     0.286190000000     0.121700000000    -0.00824373 
C172     C      0.977210000000     0.212970000000     0.126720000000     0.168525   
C173     C      0.328160000000     0.362920000000     0.178330000000    -0.0140683  
C174     C      0.331750000000     0.436960000000     0.179870000000    -0.0638925  
C175     C      0.348440000000     0.371440000000     0.213610000000    -0.00930751 
C176     C      0.346670000000     0.442690000000     0.216260000000     0.166223   
C177     C      0.510800000000     0.975020000000     0.361110000000    -0.0136929  
C178     C      0.554660000000     0.059920000000     0.360150000000    -0.0635313  
C179     C      0.546220000000     0.975290000000     0.337550000000    -0.00571434 
C180     C      0.590990000000     0.057650000000     0.339080000000     0.166077   
C181     C      0.491790000000     0.066670000000     0.084710000000    -0.0130795  
C182     C      0.470270000000     0.984860000000     0.088590000000    -0.0594736  
C183     C      0.509180000000     0.071360000000     0.120410000000     0.00292281 
C184     C      0.451010000000     0.988300000000     0.122250000000     0.167382   
C185     C      0.691480000000     0.072260000000     0.022200000000    -0.0147588  
C186     C      0.690620000000     0.144740000000     0.025760000000    -0.0651666  
C187     C      0.668110000000     0.063610000000     0.988180000000    -0.00800653 
C188     C      0.670370000000     0.136340000000     0.990700000000     0.167062   
C189     C      0.250770000000     0.872810000000     0.264600000000    -0.0146351  
C190     C      0.190570000000     0.895690000000     0.267360000000    -0.0589025  
C191     C      0.232900000000     0.849280000000     0.298080000000     0.00337541 
C192     C      0.207010000000     0.906580000000     0.303590000000     0.165868   
C193     C      0.093530000000     0.792960000000     0.015570000000    -0.0106671  
C194     C      0.134870000000     0.751270000000     0.015340000000    -0.0629105  
C195     C      0.117930000000     0.818240000000     0.046990000000    -0.0082838  
C196     C      0.162790000000     0.776370000000     0.046020000000     0.166879   
C197     C      0.352960000000     0.908810000000     0.473570000000    -0.0128713  
C198     C      0.350730000000     0.978750000000     0.464060000000    -0.0624765  
C199     C      0.321370000000     0.886400000000     0.444500000000    -0.00641679 
C200     C      0.313130000000     0.954860000000     0.437720000000     0.164732   
C201     C      0.792480000000     0.601320000000     0.441160000000    -0.0134937  
C202     C      0.833000000000     0.686040000000     0.439000000000    -0.0660352  
C203     C      0.755430000000     0.601980000000     0.462390000000    -0.00850121 
C204     C      0.795800000000     0.684530000000     0.461340000000     0.169992   
C205     C      0.892590000000     0.676340000000     0.214430000000    -0.00932935 
C206     C      0.853200000000     0.593660000000     0.214610000000    -0.0626083  
C207     C      0.867460000000     0.676640000000     0.183270000000    -0.00842039 
C208     C      0.825090000000     0.591010000000     0.184000000000     0.166934   
C209     C      0.656140000000     0.522180000000     0.273200000000    -0.0132798  
C210     C      0.655050000000     0.594020000000     0.278370000000    -0.0650651  
C211     C      0.679740000000     0.531000000000     0.306980000000    -0.00850702 
C212     C      0.680040000000     0.602970000000     0.311790000000     0.166938   
C213     C      0.023830000000     0.697670000000     0.375730000000    -0.0146841  
C214     C      0.019680000000     0.766980000000     0.360670000000    -0.0613234  
C215     C      0.994580000000     0.674230000000     0.344840000000    -0.00906651 
C216     C      0.999220000000     0.745070000000     0.327630000000     0.169766   
C217     C      0.852710000000     0.634470000000     0.764910000000     0.431347   
C218     C      0.825000000000     0.641650000000     0.888630000000     0.430874   
C219     C      0.752440000000     0.600030000000     0.817290000000     0.441768   
C220     C      0.923560000000     0.675980000000     0.833920000000     0.43985    
C221     C      0.139230000000     0.796670000000     0.966380000000     0.43101    
C222     C      0.195940000000     0.854000000000     0.849170000000     0.438034   
C223     C      0.247800000000     0.877450000000     0.929510000000     0.441982   
C224     C      0.088460000000     0.773920000000     0.885760000000     0.431525   
C225     C      0.498140000000     0.026340000000     0.536430000000     0.43206    
C226     C      0.521370000000     0.018960000000     0.912100000000     0.432372   
C227     C      0.596370000000     0.065040000000     0.481910000000     0.44148    
C228     C      0.424450000000     0.980270000000     0.968120000000     0.430312   
C229     C      0.157850000000     0.334240000000     0.707340000000     0.426941   
C230     C      0.198710000000     0.335890000000     0.584880000000     0.44348    
C231     C      0.261050000000     0.369750000000     0.662540000000     0.430633   
C232     C      0.094640000000     0.299970000000     0.629070000000     0.427191   
C233     C      0.870280000000     0.211350000000     0.513190000000     0.441174   
C234     C      0.802310000000     0.147890000000     0.627500000000     0.42741    
C235     C      0.757650000000     0.140790000000     0.544450000000     0.42761    
C236     C      0.914940000000     0.218610000000     0.597600000000     0.441289   
C237     C      0.521820000000     0.507220000000     0.686480000000     0.435938   
C238     C      0.481000000000     0.457530000000     0.807550000000     0.44306    
C239     C      0.417750000000     0.441120000000     0.730860000000     0.440187   
C240     C      0.585320000000     0.523800000000     0.762750000000     0.429988   
C241     C      0.145580000000     0.336310000000     0.838700000000     0.443108   
C242     C      0.208580000000     0.333660000000     0.953490000000     0.429455   
C243     C      0.222830000000     0.301880000000     0.871470000000     0.427782   
C244     C      0.131850000000     0.368310000000     0.921670000000     0.428822   
C245     C      0.355280000000     0.144620000000     0.896600000000     0.44397    
C246     C      0.363770000000     0.210370000000     0.781270000000     0.443954   
C247     C      0.319830000000     0.219230000000     0.860460000000     0.440942   
C248     C      0.398660000000     0.136080000000     0.817980000000     0.440556   
C249     C      0.990730000000     0.517180000000     0.916340000000     0.42688    
C250     C      0.991210000000     0.454730000000     0.531610000000     0.442689   
C251     C      0.033960000000     0.449040000000     0.950050000000     0.441763   
C252     C      0.947140000000     0.522060000000     0.496880000000     0.439604   
C253     C      0.673580000000     0.857650000000     0.589180000000     0.440822   
C254     C      0.670990000000     0.808820000000     0.709960000000     0.434978   
C255     C      0.700350000000     0.781480000000     0.629200000000     0.428898   
C256     C      0.644150000000     0.885170000000     0.669760000000     0.443235   
C257     C      0.835940000000     0.634180000000     0.632600000000     0.44784    
C258     C      0.788310000000     0.642890000000     0.514000000000     0.446743   
C259     C      0.771120000000     0.676700000000     0.596800000000     0.443265   
C260     C      0.855920000000     0.600710000000     0.552670000000     0.429551   
C261     C      0.553930000000     0.018200000000     0.786620000000     0.443996   
C262     C      0.498490000000     0.027450000000     0.670850000000     0.440299   
C263     C      0.483870000000     0.059880000000     0.752920000000     0.429052   
C264     C      0.566810000000     0.984980000000     0.703100000000     0.429248   
C265     C      0.354870000000     0.154140000000     0.527690000000     0.427811   
C266     C      0.363570000000     0.199970000000     0.649430000000     0.427088   
C267     C      0.397760000000     0.257950000000     0.569050000000     0.42692    
C268     C      0.320030000000     0.095640000000     0.607410000000     0.428398   
C269     C      0.551390000000     0.541540000000     0.557590000000     0.42746    
C270     C      0.502050000000     0.479740000000     0.939980000000     0.425725   
C271     C      0.484290000000     0.432550000000     0.524490000000     0.440126   
C272     C      0.567760000000     0.588200000000     0.972720000000     0.439885   
C273     C      0.203590000000     0.866040000000     0.715690000000     0.429993   
C274     C      0.153420000000     0.810430000000     0.597200000000     0.444988   
C275     C      0.131230000000     0.758890000000     0.678780000000     0.442345   
C276     C      0.224970000000     0.917360000000     0.633110000000     0.440985   
C277     C      0.998500000000     0.523480000000     0.783010000000     0.441518   
C278     C      0.992620000000     0.473540000000     0.662450000000     0.424588   
C279     C      0.957380000000     0.419480000000     0.744890000000     0.426347   
C280     C      0.035320000000     0.579750000000     0.702250000000     0.430311   
C281     C      0.806600000000     0.145430000000     0.760820000000     0.441035   
C282     C      0.851120000000     0.193200000000     0.881930000000     0.424436   
C283     C      0.870040000000     0.249380000000     0.800460000000     0.438005   
C284     C      0.787080000000     0.087880000000     0.840900000000     0.429335   
C285     C      0.679170000000     0.870300000000     0.956800000000     0.427374   
C286     C      0.671400000000     0.800650000000     0.842910000000     0.42621    
C287     C      0.645630000000     0.760100000000     0.928550000000     0.427642   
C288     C      0.705050000000     0.911210000000     0.871550000000     0.440792   
C289     C      0.791840000000     0.022830000000     0.860720000000    -0.0125053  
C290     C      0.716770000000     0.020470000000     0.860020000000    -0.063182   
C291     C      0.769450000000     0.976580000000     0.845320000000    -0.00771031 
C292     C      0.694140000000     0.972310000000     0.846550000000     0.166171   
C293     C      0.963750000000     0.359980000000     0.774090000000    -0.0136917  
C294     C      0.891240000000     0.361800000000     0.775110000000    -0.0638307  
C295     C      0.936870000000     0.309070000000     0.772020000000    -0.00862376 
C296     C      0.863870000000     0.310940000000     0.773100000000     0.16571    
C297     C      0.105510000000     0.645870000000     0.682570000000    -0.0127787  
C298     C      0.032330000000     0.646730000000     0.683480000000    -0.0623582  
C299     C      0.129190000000     0.690970000000     0.699840000000    -0.00734256 
C300     C      0.057200000000     0.693880000000     0.698880000000     0.165114   
C301     C      0.658050000000     0.702780000000     0.956830000000    -0.0148574  
C302     C      0.580600000000     0.694530000000     0.953960000000    -0.0656763  
C303     C      0.636900000000     0.652570000000     0.948810000000    -0.00938573 
C304     C      0.561560000000     0.647340000000     0.940970000000     0.168604   
C305     C      0.322790000000     0.028510000000     0.626720000000    -0.0154616  
C306     C      0.249230000000     0.029030000000     0.625210000000    -0.0655246  
C307     C      0.297920000000     0.980490000000     0.612800000000    -0.00727978 
C308     C      0.227060000000     0.984450000000     0.607200000000     0.168429   
C309     C      0.465980000000     0.322540000000     0.545610000000    -0.0137971  
C310     C      0.390780000000     0.319720000000     0.544490000000    -0.0641774  
C311     C      0.489370000000     0.372270000000     0.553220000000    -0.00825471 
C312     C      0.414760000000     0.370090000000     0.551360000000     0.166299   
C313     C      0.710780000000     0.793690000000     0.793350000000    -0.0139119  
C314     C      0.627120000000     0.754510000000     0.794640000000    -0.0610155  
C315     C      0.712430000000     0.819640000000     0.762130000000    -0.00626106 
C316     C      0.625250000000     0.774260000000     0.760640000000     0.163357   
C317     C      0.722410000000     0.912400000000     0.506840000000    -0.011944   
C318     C      0.639180000000     0.879060000000     0.505260000000    -0.0629688  
C319     C      0.719730000000     0.887630000000     0.539080000000    -0.00859938 
C320     C      0.633010000000     0.850730000000     0.536380000000     0.16632    
C321     C      0.685710000000     0.708880000000     0.605380000000    -0.0150573  
C322     C      0.765370000000     0.773130000000     0.612810000000    -0.0666141  
C323     C      0.701970000000     0.676530000000     0.616830000000    -0.00825978 
C324     C      0.778190000000     0.741540000000     0.629210000000     0.170224   
C325     C      0.559920000000     0.917520000000     0.676870000000    -0.012763   
C326     C      0.635510000000     0.987270000000     0.679250000000    -0.0605438  
C327     C      0.580090000000     0.891130000000     0.691740000000    -0.00619581 
C328     C      0.657450000000     0.959660000000     0.690570000000     0.16762    
C329     C      0.948800000000     0.520570000000     0.867010000000    -0.0121476  
C330     C      0.032290000000     0.568530000000     0.869820000000    -0.0623773  
C331     C      0.951870000000     0.503300000000     0.832690000000    -0.00819296 
C332     C      0.038540000000     0.550100000000     0.836670000000     0.166847   
C333     C      0.949490000000     0.444470000000     0.610280000000    -0.0143418  
C334     C      0.035640000000     0.479990000000     0.611610000000    -0.0668829  
C335     C      0.948340000000     0.414650000000     0.581570000000    -0.00799981 
C336     C      0.031980000000     0.450250000000     0.582140000000     0.169613   
C337     C      0.929720000000     0.605090000000     0.541930000000    -0.0137531  
C338     C      0.857850000000     0.531440000000     0.541930000000    -0.0636884  
C339     C      0.946380000000     0.590870000000     0.511480000000    -0.00888581 
C340     C      0.873150000000     0.517360000000     0.510650000000     0.16604    
C341     C      0.312150000000     0.129900000000     0.975080000000    -0.013383   
C342     C      0.398100000000     0.162900000000     0.976670000000    -0.0667768  
C343     C      0.310460000000     0.101820000000     0.945040000000    -0.00846971 
C344     C      0.393790000000     0.134600000000     0.946200000000     0.169585   
C345     C      0.320780000000     0.190140000000     0.700820000000    -0.0156557  
C346     C      0.407030000000     0.226130000000     0.701560000000    -0.0640048  
C347     C      0.324200000000     0.216920000000     0.731970000000    -0.00412537 
C348     C      0.408060000000     0.254130000000     0.731550000000     0.166685   
C349     C      0.483890000000     0.128170000000     0.771170000000    -0.014126   
C350     C      0.410980000000     0.054960000000     0.768320000000    -0.0615219  
C351     C      0.470030000000     0.136900000000     0.805280000000    -0.00729427 
C352     C      0.396960000000     0.064630000000     0.802140000000     0.168693   
C353     C      0.059630000000     0.359800000000     0.943770000000    -0.0144359  
C354     C      0.130750000000     0.434380000000     0.943940000000    -0.0645811  
C355     C      0.033610000000     0.381530000000     0.928950000000    -0.00788614 
C356     C      0.105580000000     0.455140000000     0.927020000000     0.168114   
C357     C      0.226560000000     0.235500000000     0.853400000000    -0.0125151  
C358     C      0.297240000000     0.310130000000     0.855480000000    -0.0632377  
C359     C      0.248420000000     0.216400000000     0.876130000000    -0.00744105 
C360     C      0.320380000000     0.290050000000     0.876880000000     0.164697   
C361     C      0.465190000000     0.484570000000     0.889000000000    -0.0157886  
C362     C      0.516920000000     0.451030000000     0.888250000000    -0.0639358  
C363     C      0.440350000000     0.455820000000     0.858840000000    -0.00436565 
C364     C      0.489050000000     0.421180000000     0.859030000000     0.166498   
C365     C      0.589190000000     0.539420000000     0.609450000000    -0.0143231  
C366     C      0.540980000000     0.574370000000     0.609420000000    -0.0586928  
C367     C      0.557350000000     0.503770000000     0.634220000000    -0.00654841 
C368     C      0.509340000000     0.541040000000     0.635560000000     0.166706   
C369     C      0.837700000000     0.221260000000     0.934680000000    -0.0142992  
C370     C      0.887590000000     0.185710000000     0.932490000000    -0.0665952  
C371     C      0.867470000000     0.251120000000     0.963170000000    -0.00839508 
C372     C      0.914560000000     0.215140000000     0.962060000000     0.168725   
C373     C      0.757290000000     0.145100000000     0.677020000000    -0.0121127  
C374     C      0.793090000000     0.098060000000     0.674790000000    -0.0651875  
C375     C      0.778830000000     0.163820000000     0.710940000000    -0.00847105 
C376     C      0.819240000000     0.118250000000     0.707260000000     0.167569   
C377     C      0.131040000000     0.293540000000     0.760360000000    -0.0137437  
C378     C      0.170130000000     0.378450000000     0.758180000000    -0.0666903  
C379     C      0.102280000000     0.294370000000     0.789360000000    -0.00816886 
C380     C      0.141380000000     0.376790000000     0.788070000000     0.168991   
C381     C      0.210190000000     0.291650000000     0.502960000000    -0.0111984  
C382     C      0.255900000000     0.374010000000     0.502130000000    -0.0637519  
C383     C      0.184900000000     0.292320000000     0.534080000000    -0.00850239 
C384     C      0.230770000000     0.377870000000     0.532560000000     0.166501   
C385     C      0.029720000000     0.307880000000     0.609420000000    -0.0149136  
C386     C      0.024320000000     0.232550000000     0.611550000000    -0.0659681  
C387     C      0.980350000000     0.286190000000     0.621700000000    -0.00823283 
C388     C      0.977210000000     0.212970000000     0.626720000000     0.168586   
C389     C      0.328160000000     0.362920000000     0.678330000000    -0.0140685  
C390     C      0.331750000000     0.436970000000     0.679870000000    -0.0639728  
C391     C      0.348440000000     0.371440000000     0.713610000000    -0.00930993 
C392     C      0.346670000000     0.442690000000     0.716260000000     0.166209   
C393     C      0.510800000000     0.975020000000     0.861110000000    -0.0136913  
C394     C      0.554660000000     0.059920000000     0.860150000000    -0.0634745  
C395     C      0.546210000000     0.975290000000     0.837560000000    -0.0057172  
C396     C      0.591000000000     0.057650000000     0.839080000000     0.166044   
C397     C      0.491790000000     0.066670000000     0.584710000000    -0.0130746  
C398     C      0.470270000000     0.984860000000     0.588590000000    -0.059508   
C399     C      0.509180000000     0.071360000000     0.620410000000     0.00293077 
C400     C      0.451010000000     0.988300000000     0.622250000000     0.167528   
C401     C      0.691480000000     0.072260000000     0.522200000000    -0.0148148  
C402     C      0.690620000000     0.144740000000     0.525760000000    -0.0653048  
C403     C      0.668110000000     0.063610000000     0.488180000000    -0.00796193 
C404     C      0.670370000000     0.136340000000     0.490710000000     0.167109   
C405     C      0.250770000000     0.872810000000     0.764600000000    -0.0146236  
C406     C      0.190570000000     0.895690000000     0.767350000000    -0.0588392  
C407     C      0.232900000000     0.849280000000     0.798080000000     0.00335499 
C408     C      0.207010000000     0.906580000000     0.803580000000     0.165774   
C409     C      0.093530000000     0.792960000000     0.515570000000    -0.010768   
C410     C      0.134870000000     0.751270000000     0.515340000000    -0.0629955  
C411     C      0.117940000000     0.818240000000     0.546990000000    -0.00817719 
C412     C      0.162790000000     0.776370000000     0.546020000000     0.166892   
C413     C      0.352960000000     0.908810000000     0.973570000000    -0.0129692  
C414     C      0.350740000000     0.978750000000     0.964060000000    -0.0623316  
C415     C      0.321370000000     0.886400000000     0.944500000000    -0.00639995 
C416     C      0.313120000000     0.954860000000     0.937720000000     0.164711   
C417     C      0.792480000000     0.601330000000     0.941160000000    -0.0133541  
C418     C      0.833000000000     0.686040000000     0.939000000000    -0.0660091  
C419     C      0.755430000000     0.601980000000     0.962390000000    -0.00861508 
C420     C      0.795800000000     0.684530000000     0.961340000000     0.17003    
C421     C      0.892590000000     0.676340000000     0.714430000000    -0.00932856 
C422     C      0.853200000000     0.593660000000     0.714610000000    -0.0625768  
C423     C      0.867460000000     0.676640000000     0.683270000000    -0.00841903 
C424     C      0.825080000000     0.591000000000     0.684000000000     0.166932   
C425     C      0.656140000000     0.522180000000     0.773200000000    -0.0132682  
C426     C      0.655050000000     0.594020000000     0.778370000000    -0.0650507  
C427     C      0.679740000000     0.531000000000     0.806980000000    -0.00852086 
C428     C      0.680040000000     0.602970000000     0.811790000000     0.166911   
C429     C      0.023830000000     0.697670000000     0.875730000000    -0.0145881  
C430     C      0.019680000000     0.766980000000     0.860670000000    -0.061286   
C431     C      0.994580000000     0.674230000000     0.844840000000    -0.00916559 
C432     C      0.999220000000     0.745070000000     0.827630000000     0.169658   
H1       H      0.771180000000     0.980330000000     0.317760000000     0.0414345  
H2       H      0.827650000000     0.041730000000     0.352260000000     0.0463768  
H3       H      0.693670000000     0.974140000000     0.318800000000     0.00479578 
H4       H      0.698960000000     0.037270000000     0.349530000000     0.062574   
H5       H      0.789110000000     0.960060000000     0.352200000000     0.0444116  
H6       H      0.792120000000     0.019270000000     0.388230000000     0.0426518  
H7       H      0.712520000000     0.019090000000     0.387530000000     0.0625027  
H8       H      0.630160000000     0.953450000000     0.343250000000     0.13956    
H9       H      0.934500000000     0.299210000000     0.245420000000     0.0396667  
H10      H      0.996050000000     0.372140000000     0.260180000000     0.0447228  
H11      H      0.855870000000     0.301470000000     0.246350000000     0.00169097 
H12      H      0.871800000000     0.375410000000     0.262320000000     0.0595128  
H13      H      0.956440000000     0.295970000000     0.285310000000     0.044753   
H14      H      0.972330000000     0.369760000000     0.300620000000     0.0430355  
H15      H      0.894430000000     0.371850000000     0.301730000000     0.0611577  
H16      H      0.801600000000     0.298570000000     0.275990000000     0.138092   
H17      H      0.126740000000     0.685210000000     0.227200000000     0.0424046  
H18      H      0.122460000000     0.626810000000     0.189790000000     0.0470853  
H19      H      0.053450000000     0.690110000000     0.226490000000     0.00479116 
H20      H      0.996920000000     0.628680000000     0.192940000000     0.060579   
H21      H      0.165720000000     0.708370000000     0.193190000000     0.0460668  
H22      H      0.109770000000     0.651540000000     0.155220000000     0.0464869  
H23      H      0.030880000000     0.650060000000     0.156020000000     0.0652446  
H24      H      0.009680000000     0.709290000000     0.201150000000     0.137591   
H25      H      0.642020000000     0.649230000000     0.421850000000     0.040054   
H26      H      0.692600000000     0.721150000000     0.445880000000     0.0463554  
H27      H      0.566990000000     0.649260000000     0.413450000000     0.00322686 
H28      H      0.560250000000     0.708870000000     0.443870000000     0.0621595  
H29      H      0.655420000000     0.639060000000     0.463000000000     0.0465281  
H30      H      0.661640000000     0.706840000000     0.484320000000     0.0431219  
H31      H      0.577130000000     0.693300000000     0.481550000000     0.063386   
H32      H      0.499180000000     0.629730000000     0.430010000000     0.137687   
H33      H      0.303940000000     0.982270000000     0.085490000000     0.0416947  
H34      H      0.358120000000     0.046080000000     0.117120000000     0.0537696  
H35      H      0.234310000000     0.991190000000     0.080040000000     0.00479782 
H36      H      0.232570000000     0.048130000000     0.117330000000     0.062005   
H37      H      0.313090000000     0.961610000000     0.124000000000     0.0486297  
H38      H      0.324500000000     0.026500000000     0.154260000000     0.0467526  
H39      H      0.243470000000     0.022810000000     0.152430000000     0.0635436  
H40      H      0.167190000000     0.974950000000     0.096450000000     0.138283   
H41      H      0.492290000000     0.376580000000     0.080720000000     0.0371909  
H42      H      0.485230000000     0.308440000000     0.058000000000     0.0448401  
H43      H      0.414650000000     0.374970000000     0.078830000000     0.00344291 
H44      H      0.356860000000     0.303770000000     0.056530000000     0.0602654  
H45      H      0.524340000000     0.388350000000     0.043030000000     0.0436681  
H46      H      0.467610000000     0.318260000000     0.018290000000     0.0429924  
H47      H      0.385370000000     0.314240000000     0.017180000000     0.0637746  
H48      H      0.364550000000     0.381780000000     0.549940000000     0.142854   
H49      H      0.719160000000     0.853320000000     0.269680000000     0.0433253  
H50      H      0.742250000000     0.813710000000     0.308050000000     0.0452006  
H51      H      0.614960000000     0.799760000000     0.265220000000     0.00551101 
H52      H      0.597030000000     0.747940000000     0.309710000000     0.0569699  
H53      H      0.741520000000     0.824300000000     0.246580000000     0.0426904  
H54      H      0.709430000000     0.762200000000     0.285600000000     0.0435419  
H55      H      0.624860000000     0.721730000000     0.290210000000     0.0596201  
H56      H      0.562260000000     0.735160000000     0.248110000000     0.140065   
H57      H      0.725650000000     0.859660000000     0.032860000000     0.0413388  
H58      H      0.752870000000     0.918570000000     0.992430000000     0.044341   
H59      H      0.623940000000     0.816460000000     0.028180000000     0.00715704 
H60      H      0.608380000000     0.861760000000     0.989430000000     0.0595339  
H61      H      0.748090000000     0.910700000000     0.055530000000     0.0461849  
H62      H      0.726670000000     0.945420000000     0.013660000000     0.0402305  
H63      H      0.642780000000     0.911450000000     0.013270000000     0.0615434  
H64      H      0.568820000000     0.825500000000     0.045880000000     0.141151   
H65      H      0.692960000000     0.668530000000     0.143540000000     0.0413711  
H66      H      0.650260000000     0.695840000000     0.113920000000     0.0483049  
H67      H      0.768000000000     0.738130000000     0.155970000000     0.00404399 
H68      H      0.786330000000     0.806930000000     0.123660000000     0.0631663  
H69      H      0.683550000000     0.645000000000     0.102410000000     0.0449076  
H70      H      0.685400000000     0.709060000000     0.077700000000     0.0434132  
H71      H      0.773320000000     0.775310000000     0.085770000000     0.0663685  
H72      H      0.839380000000     0.781100000000     0.145320000000     0.137991   
H73      H      0.577770000000     0.892000000000     0.219340000000     0.0401157  
H74      H      0.523600000000     0.901620000000     0.183970000000     0.0453483  
H75      H      0.660350000000     0.962550000000     0.218280000000     0.00254632 
H76      H      0.654250000000     0.021000000000     0.190660000000     0.0634366  
H77      H      0.559140000000     0.855780000000     0.183890000000     0.0467278  
H78      H      0.561490000000     0.915950000000     0.149270000000     0.0451709  
H79      H      0.639000000000     0.991420000000     0.151750000000     0.0657529  
H80      H      0.722500000000     0.982460000000     0.193740000000     0.151464   
H81      H      0.945350000000     0.468630000000     0.335630000000     0.0399507  
H82      H      0.918280000000     0.494740000000     0.380290000000     0.0433882  
H83      H      0.046670000000     0.523270000000     0.342220000000     0.00854812 
H84      H      0.062720000000     0.578810000000     0.385660000000     0.0600197  
H85      H      0.923970000000     0.501240000000     0.317010000000     0.043629   
H86      H      0.944380000000     0.550020000000     0.363350000000     0.0384191  
H87      H      0.029330000000     0.598550000000     0.364620000000     0.0586925  
H88      H      0.103010000000     0.588220000000     0.328390000000     0.141676   
H89      H      0.945300000000     0.383630000000     0.092270000000     0.0385704  
H90      H      0.919460000000     0.424790000000     0.126480000000     0.0436865  
H91      H      0.028380000000     0.418740000000     0.092570000000     0.000516045
H92      H      0.063240000000     0.483500000000     0.128350000000     0.0592571  
H93      H      0.918030000000     0.405370000000     0.065840000000     0.0457498  
H94      H      0.946610000000     0.472650000000     0.099720000000     0.0480466  
H95      H      0.045730000000     0.513830000000     0.102010000000     0.0667248  
H96      H      0.095070000000     0.468170000000     0.074080000000     0.138895   
H97      H      0.938770000000     0.604600000000     0.988930000000     0.0389885  
H98      H      0.943830000000     0.641760000000     0.040970000000     0.0474139  
H99      H      0.859690000000     0.526410000000     0.488450000000     0.00251657 
H100     H      0.820260000000     0.515110000000     0.041630000000     0.0605902  
H101     H      0.983830000000     0.606470000000     0.013100000000     0.045939   
H102     H      0.943570000000     0.597680000000     0.064590000000     0.0451342  
H103     H      0.867710000000     0.519090000000     0.064190000000     0.0649562  
H104     H      0.823610000000     0.456970000000     0.003090000000     0.138577   
H105     H      0.306070000000     0.069640000000     0.454320000000     0.0387559  
H106     H      0.281740000000     0.109710000000     0.490810000000     0.0434049  
H107     H      0.388500000000     0.101880000000     0.455370000000     0.000786888
H108     H      0.425150000000     0.164490000000     0.493100000000     0.0599115  
H109     H      0.280740000000     0.094700000000     0.429280000000     0.0427603  
H110     H      0.310470000000     0.159370000000     0.465970000000     0.0446975  
H111     H      0.409290000000     0.197500000000     0.468300000000     0.0661658  
H112     H      0.456290000000     0.150290000000     0.438130000000     0.136725   
H113     H      0.325690000000     0.248360000000     0.223900000000     0.035405   
H114     H      0.293150000000     0.188090000000     0.184840000000     0.0447724  
H115     H      0.409150000000     0.284940000000     0.222000000000     0.00301226 
H116     H      0.436840000000     0.246900000000     0.185420000000     0.0564609  
H117     H      0.293160000000     0.198130000000     0.247390000000     0.0410437  
H118     H      0.310590000000     0.155550000000     0.208550000000     0.0460853  
H119     H      0.410110000000     0.197390000000     0.210630000000     0.0655044  
H120     H      0.472610000000     0.291250000000     0.239790000000     0.137673   
H121     H      0.483730000000     0.123930000000     0.324720000000     0.041813   
H122     H      0.521410000000     0.143920000000     0.270450000000     0.0476648  
H123     H      0.408980000000     0.049470000000     0.321260000000     0.00403802 
H124     H      0.396400000000     0.018360000000     0.265570000000     0.0689667  
H125     H      0.486120000000     0.173540000000     0.308770000000     0.0494127  
H126     H      0.473580000000     0.144410000000     0.251880000000     0.0448518  
H127     H      0.396050000000     0.066010000000     0.248430000000     0.0662039  
H128     H      0.340290000000     0.034810000000     0.326710000000     0.154488   
H129     H      0.032200000000     0.377120000000     0.401470000000     0.0412759  
H130     H      0.044240000000     0.324990000000     0.434480000000     0.0456655  
H131     H      0.107700000000     0.451530000000     0.399550000000     0.00624622 
H132     H      0.167020000000     0.452890000000     0.436540000000     0.0624682  
H133     H      0.998270000000     0.363480000000     0.438500000000     0.0453595  
H134     H      0.055530000000     0.358500000000     0.471280000000     0.0444569  
H135     H      0.129220000000     0.438100000000     0.471350000000     0.0648242  
H136     H      0.153200000000     0.516630000000     0.420480000000     0.138571   
H137     H      0.240820000000     0.220720000000     0.402350000000     0.0393383  
H138     H      0.189280000000     0.217170000000     0.357290000000     0.044061   
H139     H      0.315360000000     0.295400000000     0.403590000000     0.00482734 
H140     H      0.311160000000     0.345720000000     0.362360000000     0.0599661  
H141     H      0.232710000000     0.180000000000     0.371590000000     0.0438301  
H142     H      0.233000000000     0.230030000000     0.327150000000     0.0416462  
H143     H      0.305670000000     0.308830000000     0.328900000000     0.0626714  
H144     H      0.381240000000     0.340120000000     0.382400000000     0.140396   
H145     H      0.410830000000     0.424480000000     0.368110000000     0.0355524  
H146     H      0.439970000000     0.486700000000     0.405300000000     0.0485064  
H147     H      0.460440000000     0.389940000000     0.369460000000     0.00733858 
H148     H      0.527300000000     0.431760000000     0.404630000000     0.057704   
H149     H      0.426860000000     0.473150000000     0.343280000000     0.0432026  
H150     H      0.489040000000     0.518930000000     0.380120000000     0.0466484  
H151     H      0.548310000000     0.480000000000     0.378290000000     0.0645196  
H152     H      0.518680000000     0.386610000000     0.350590000000     0.141537   
H153     H      0.532950000000     0.473560000000     0.120110000000     0.0410498  
H154     H      0.605930000000     0.525500000000     0.093640000000     0.0439423  
H155     H      0.480090000000     0.514220000000     0.121530000000     0.00553709 
H156     H      0.521810000000     0.585440000000     0.093390000000     0.0652026  
H157     H      0.577800000000     0.494500000000     0.150500000000     0.0407864  
H158     H      0.615870000000     0.568030000000     0.123740000000     0.0413294  
H159     H      0.567710000000     0.604250000000     0.122610000000     0.0628737  
H160     H      0.461860000000     0.541740000000     0.162060000000     0.153519   
H161     H      0.895880000000     0.281970000000     0.452240000000     0.0391624  
H162     H      0.827200000000     0.240870000000     0.418810000000     0.0441411  
H163     H      0.943060000000     0.246610000000     0.451650000000     0.000774343
H164     H      0.911350000000     0.182150000000     0.415490000000     0.0587795  
H165     H      0.847000000000     0.260750000000     0.479040000000     0.0427438  
H166     H      0.806520000000     0.192970000000     0.445510000000     0.0443455  
H167     H      0.863270000000     0.151840000000     0.442010000000     0.0645518  
H168     H      0.959090000000     0.196590000000     0.469490000000     0.138045   
H169     H      0.807040000000     0.198560000000     0.207220000000     0.0404103  
H170     H      0.752170000000     0.170170000000     0.163350000000     0.0435124  
H171     H      0.854110000000     0.145410000000     0.200810000000     0.00804464 
H172     H      0.812650000000     0.087250000000     0.158990000000     0.0643541  
H173     H      0.753270000000     0.165980000000     0.226850000000     0.0460989  
H174     H      0.723260000000     0.115520000000     0.181430000000     0.0409266  
H175     H      0.760060000000     0.068180000000     0.181050000000     0.068402   
H176     H      0.846710000000     0.081680000000     0.215740000000     0.141513   
H177     H      0.071220000000     0.292830000000     0.279030000000     0.0373956  
H178     H      0.109730000000     0.263750000000     0.244700000000     0.0420232  
H179     H      0.109560000000     0.374250000000     0.278120000000     0.00102188 
H180     H      0.174720000000     0.405920000000     0.241380000000     0.058651   
H181     H      0.091710000000     0.264380000000     0.305140000000     0.0425483  
H182     H      0.159420000000     0.289980000000     0.270570000000     0.0439046  
H183     H      0.204320000000     0.386810000000     0.267310000000     0.0641089  
H184     H      0.162210000000     0.439590000000     0.295330000000     0.13741    
H185     H      0.150780000000     0.285920000000     0.026430000000     0.0415956  
H186     H      0.188250000000     0.261440000000     0.987930000000     0.0426554  
H187     H      0.203890000000     0.384850000000     0.023650000000     0.00700848 
H188     H      0.268060000000     0.404280000000     0.986390000000     0.0606674  
H189     H      0.179550000000     0.264120000000     0.050360000000     0.0438317  
H190     H      0.240290000000     0.289500000000     0.011010000000     0.0393282  
H191     H      0.286000000000     0.372310000000     0.010920000000     0.0640457  
H192     H      0.265790000000     0.441170000000     0.042730000000     0.142103   
H193     H      0.980850000000     0.290630000000     0.149140000000     0.0390653  
H194     H      0.049000000000     0.342300000000     0.119560000000     0.0454182  
H195     H      0.981360000000     0.218110000000     0.154230000000     0.00214438 
H196     H      0.040690000000     0.214030000000     0.121370000000     0.0613675  
H197     H      0.964180000000     0.304100000000     0.110360000000     0.0445974  
H198     H      0.029630000000     0.310480000000     0.081830000000     0.0443417  
H199     H      0.020830000000     0.227420000000     0.084130000000     0.0655347  
H200     H      0.961240000000     0.151760000000     0.136250000000     0.1369     
H201     H      0.319960000000     0.354310000000     0.231540000000     0.0398757  
H202     H      0.305190000000     0.326540000000     0.174730000000     0.045487   
H203     H      0.315620000000     0.425830000000     0.232110000000     0.00452966 
H204     H      0.312610000000     0.454720000000     0.175440000000     0.0627098  
H205     H      0.369990000000     0.355860000000     0.216010000000     0.046127   
H206     H      0.356460000000     0.373910000000     0.160230000000     0.042367   
H207     H      0.362460000000     0.452640000000     0.163800000000     0.0610962  
H208     H      0.348600000000     0.497890000000     0.228670000000     0.139103   
H209     H      0.572320000000     0.973420000000     0.352960000000     0.0378373  
H210     H      0.498460000000     0.946110000000     0.378320000000     0.0451317  
H211     H      0.614920000000     0.054270000000     0.356230000000     0.00403647 
H212     H      0.571330000000     0.089480000000     0.376830000000     0.0596613  
H213     H      0.530320000000     0.945390000000     0.321190000000     0.0412308  
H214     H      0.481350000000     0.970080000000     0.345920000000     0.0455267  
H215     H      0.531030000000     0.064120000000     0.343400000000     0.0631583  
H216     H      0.637080000000     0.120080000000     0.335080000000     0.136934   
H217     H      0.546010000000     0.082580000000     0.119610000000     0.0443048  
H218     H      0.515210000000     0.097400000000     0.070680000000     0.0448567  
H219     H      0.442960000000     0.957840000000     0.136900000000     0.00616986 
H220     H      0.498230000000     0.977660000000     0.092930000000     0.0556725  
H221     H      0.505700000000     0.097770000000     0.133520000000     0.0389175  
H222     H      0.457960000000     0.064160000000     0.084880000000     0.0552323  
H223     H      0.443690000000     0.956250000000     0.074190000000     0.0534817  
H224     H      0.386650000000     0.959580000000     0.112420000000     0.139178   
H225     H      0.694870000000     0.076440000000     0.968680000000     0.0392463  
H226     H      0.714410000000     0.058070000000     0.022200000000     0.0474995  
H227     H      0.698930000000     0.149760000000     0.472470000000     0.00202388 
H228     H      0.712510000000     0.181280000000     0.029380000000     0.0602121  
H229     H      0.646620000000     0.027090000000     0.984250000000     0.0463761  
H230     H      0.664980000000     0.054060000000     0.041360000000     0.0450845  
H231     H      0.662590000000     0.132460000000     0.044240000000     0.0629492  
H232     H      0.667760000000     0.190220000000     0.981980000000     0.137544   
H233     H      0.207670000000     0.813610000000     0.293490000000     0.0431493  
H234     H      0.261700000000     0.852990000000     0.249460000000     0.0452797  
H235     H      0.181600000000     0.911560000000     0.317580000000     0.00809377 
H236     H      0.153930000000     0.870070000000     0.267470000000     0.0577817  
H237     H      0.261210000000     0.850020000000     0.312430000000     0.0403811  
H238     H      0.281200000000     0.905980000000     0.268950000000     0.0572955  
H239     H      0.193330000000     0.925680000000     0.254960000000     0.0566158  
H240     H      0.243480000000     0.971260000000     0.302670000000     0.145524   
H241     H      0.143620000000     0.852850000000     0.039810000000     0.0449925  
H242     H      0.083510000000     0.813530000000     0.000420000000     0.0449403  
H243     H      0.196780000000     0.803180000000     0.037470000000     0.0072224  
H244     H      0.154720000000     0.740480000000     0.999870000000     0.0589752  
H245     H      0.092870000000     0.820730000000     0.063250000000     0.0485949  
H246     H      0.061950000000     0.762290000000     0.023200000000     0.0397492  
H247     H      0.103540000000     0.720890000000     0.023780000000     0.0612339  
H248     H      0.192960000000     0.742980000000     0.057210000000     0.140818   
H249     H      0.341860000000     0.891850000000     0.421600000000     0.0420467  
H250     H      0.375000000000     0.893900000000     0.476770000000     0.0450571  
H251     H      0.329370000000     0.965010000000     0.412690000000     0.00504147 
H252     H      0.371600000000     0.014570000000     0.957300000000     0.059734   
H253     H      0.302120000000     0.849960000000     0.449640000000     0.0432698  
H254     H      0.332270000000     0.901800000000     0.496570000000     0.0414814  
H255     H      0.334460000000     0.976960000000     0.988460000000     0.0622908  
H256     H      0.293070000000     0.997580000000     0.429210000000     0.140963   
H257     H      0.729060000000     0.601090000000     0.445530000000     0.0393263  
H258     H      0.776610000000     0.571200000000     0.425020000000     0.0434278  
H259     H      0.768510000000     0.682650000000     0.444850000000     0.0025985  
H260     H      0.845040000000     0.714580000000     0.421470000000     0.0614257  
H261     H      0.739240000000     0.571730000000     0.478380000000     0.0419841  
H262     H      0.817040000000     0.598770000000     0.457960000000     0.0431497  
H263     H      0.862230000000     0.692150000000     0.454960000000     0.06584    
H264     H      0.815500000000     0.747360000000     0.466770000000     0.139198   
H265     H      0.840090000000     0.683510000000     0.190750000000     0.0442982  
H266     H      0.901530000000     0.706430000000     0.229690000000     0.0421569  
H267     H      0.791140000000     0.584480000000     0.192580000000     0.00651149 
H268     H      0.833480000000     0.563360000000     0.230160000000     0.0569551  
H269     H      0.891370000000     0.704910000000     0.167280000000     0.0494047  
H270     H      0.924770000000     0.678170000000     0.206580000000     0.0364048  
H271     H      0.884730000000     0.594480000000     0.206190000000     0.061013   
H272     H      0.794970000000     0.527910000000     0.173000000000     0.139956   
H273     H      0.653340000000     0.515520000000     0.326630000000     0.0419147  
H274     H      0.634740000000     0.485570000000     0.269690000000     0.047907   
H275     H      0.653820000000     0.588370000000     0.331770000000     0.00403202 
H276     H      0.632580000000     0.608720000000     0.278860000000     0.0625865  
H277     H      0.700450000000     0.514390000000     0.307550000000     0.0446241  
H278     H      0.682500000000     0.535160000000     0.253410000000     0.041847   
H279     H      0.680630000000     0.611190000000     0.258420000000     0.0639133  
H280     H      0.686640000000     0.660120000000     0.324400000000     0.139071   
H281     H      0.017600000000     0.676260000000     0.324430000000     0.0417468  
H282     H      0.048840000000     0.686350000000     0.379380000000     0.0461648  
H283     H      0.027900000000     0.750470000000     0.311090000000     0.0037436  
H284     H      0.040890000000     0.803580000000     0.356700000000     0.0680262  
H285     H      0.971610000000     0.638370000000     0.350550000000     0.0445833  
H286     H      0.001190000000     0.686430000000     0.397850000000     0.0411933  
H287     H      0.992120000000     0.760820000000     0.378460000000     0.0662778  
H288     H      0.972410000000     0.756740000000     0.289180000000     0.147343   
H289     H      0.771180000000     0.980330000000     0.817760000000     0.0414379  
H290     H      0.827650000000     0.041730000000     0.852260000000     0.0463773  
H291     H      0.693670000000     0.974140000000     0.818800000000     0.00479932 
H292     H      0.698960000000     0.037270000000     0.849530000000     0.0625742  
H293     H      0.789110000000     0.960060000000     0.852200000000     0.0444067  
H294     H      0.792120000000     0.019270000000     0.888230000000     0.0426425  
H295     H      0.712520000000     0.019090000000     0.887530000000     0.062495   
H296     H      0.630160000000     0.953450000000     0.843250000000     0.139561   
H297     H      0.934500000000     0.299210000000     0.745420000000     0.0396689  
H298     H      0.996050000000     0.372140000000     0.760180000000     0.0447212  
H299     H      0.855870000000     0.301470000000     0.746350000000     0.00169286 
H300     H      0.871800000000     0.375410000000     0.762320000000     0.0594895  
H301     H      0.956440000000     0.295970000000     0.785310000000     0.0447575  
H302     H      0.972330000000     0.369760000000     0.800620000000     0.0430366  
H303     H      0.894420000000     0.371850000000     0.801730000000     0.0611398  
H304     H      0.801600000000     0.298570000000     0.775990000000     0.138092   
H305     H      0.126740000000     0.685210000000     0.727200000000     0.0424269  
H306     H      0.122460000000     0.626810000000     0.689790000000     0.0470557  
H307     H      0.053450000000     0.690110000000     0.726490000000     0.00479749 
H308     H      0.996930000000     0.628680000000     0.692950000000     0.0606018  
H309     H      0.165720000000     0.708370000000     0.693190000000     0.046083   
H310     H      0.109770000000     0.651540000000     0.655220000000     0.0464526  
H311     H      0.030880000000     0.650060000000     0.656020000000     0.0652609  
H312     H      0.009680000000     0.709290000000     0.701150000000     0.137593   
H313     H      0.642030000000     0.649230000000     0.921850000000     0.0400437  
H314     H      0.692600000000     0.721150000000     0.945880000000     0.046336   
H315     H      0.566990000000     0.649260000000     0.913450000000     0.00322535 
H316     H      0.560250000000     0.708870000000     0.943880000000     0.0621816  
H317     H      0.655410000000     0.639060000000     0.963000000000     0.0465245  
H318     H      0.661640000000     0.706840000000     0.984320000000     0.0430921  
H319     H      0.577130000000     0.693300000000     0.981540000000     0.0634084  
H320     H      0.499170000000     0.629720000000     0.930010000000     0.13768    
H321     H      0.303940000000     0.982270000000     0.585490000000     0.0416955  
H322     H      0.358120000000     0.046080000000     0.617120000000     0.0537647  
H323     H      0.234310000000     0.991190000000     0.580040000000     0.00480841 
H324     H      0.232570000000     0.048130000000     0.617330000000     0.0620031  
H325     H      0.313090000000     0.961610000000     0.624000000000     0.0486283  
H326     H      0.324500000000     0.026500000000     0.654260000000     0.0467511  
H327     H      0.243470000000     0.022810000000     0.652430000000     0.0635627  
H328     H      0.167190000000     0.974960000000     0.596450000000     0.138198   
H329     H      0.492300000000     0.376580000000     0.580720000000     0.0372132  
H330     H      0.485230000000     0.308440000000     0.558000000000     0.0448246  
H331     H      0.414640000000     0.374970000000     0.578830000000     0.00343952 
H332     H      0.356860000000     0.303770000000     0.556530000000     0.060264   
H333     H      0.524340000000     0.388350000000     0.543030000000     0.0436902  
H334     H      0.467620000000     0.318260000000     0.518290000000     0.0429659  
H335     H      0.385370000000     0.314240000000     0.517180000000     0.0637693  
H336     H      0.364550000000     0.381780000000     0.049950000000     0.142773   
H337     H      0.719160000000     0.853320000000     0.769680000000     0.0433064  
H338     H      0.742250000000     0.813710000000     0.808050000000     0.0452052  
H339     H      0.614960000000     0.799760000000     0.765220000000     0.00552178 
H340     H      0.597030000000     0.747940000000     0.809710000000     0.0569668  
H341     H      0.741530000000     0.824300000000     0.746580000000     0.0426481  
H342     H      0.709430000000     0.762200000000     0.785610000000     0.0435505  
H343     H      0.624860000000     0.721730000000     0.790200000000     0.0596143  
H344     H      0.562260000000     0.735160000000     0.748110000000     0.140066   
H345     H      0.725650000000     0.859660000000     0.532860000000     0.0413178  
H346     H      0.752870000000     0.918580000000     0.492430000000     0.0443948  
H347     H      0.623940000000     0.816460000000     0.528190000000     0.00715532 
H348     H      0.608380000000     0.861760000000     0.489430000000     0.0595757  
H349     H      0.748090000000     0.910700000000     0.555530000000     0.0461656  
H350     H      0.726670000000     0.945410000000     0.513660000000     0.0402575  
H351     H      0.642780000000     0.911450000000     0.513270000000     0.0615464  
H352     H      0.568810000000     0.825500000000     0.545880000000     0.141038   
H353     H      0.692960000000     0.668530000000     0.643530000000     0.0413869  
H354     H      0.650250000000     0.695840000000     0.613920000000     0.0482799  
H355     H      0.768000000000     0.738130000000     0.655970000000     0.00400572 
H356     H      0.786330000000     0.806930000000     0.623660000000     0.0631684  
H357     H      0.683550000000     0.645000000000     0.602410000000     0.0449116  
H358     H      0.685400000000     0.709060000000     0.577700000000     0.0433958  
H359     H      0.773320000000     0.775310000000     0.585770000000     0.0663791  
H360     H      0.839370000000     0.781100000000     0.645320000000     0.138006   
H361     H      0.577770000000     0.892000000000     0.719340000000     0.0401172  
H362     H      0.523600000000     0.901620000000     0.683970000000     0.0453437  
H363     H      0.660350000000     0.962550000000     0.718280000000     0.0025295  
H364     H      0.654250000000     0.021000000000     0.690660000000     0.0634246  
H365     H      0.559140000000     0.855780000000     0.683890000000     0.0467292  
H366     H      0.561490000000     0.915950000000     0.649270000000     0.0451675  
H367     H      0.639000000000     0.991420000000     0.651750000000     0.0657438  
H368     H      0.722500000000     0.982460000000     0.693740000000     0.151453   
H369     H      0.945350000000     0.468630000000     0.835630000000     0.0399507  
H370     H      0.918280000000     0.494740000000     0.880290000000     0.0433981  
H371     H      0.046680000000     0.523270000000     0.842220000000     0.00852054 
H372     H      0.062720000000     0.578810000000     0.885650000000     0.0600258  
H373     H      0.923970000000     0.501240000000     0.817010000000     0.0436273  
H374     H      0.944380000000     0.550020000000     0.863350000000     0.0384224  
H375     H      0.029330000000     0.598550000000     0.864620000000     0.0586817  
H376     H      0.103010000000     0.588220000000     0.828390000000     0.141751   
H377     H      0.945300000000     0.383630000000     0.592270000000     0.0385563  
H378     H      0.919460000000     0.424790000000     0.626490000000     0.0436796  
H379     H      0.028380000000     0.418740000000     0.592570000000     0.000503323
H380     H      0.063240000000     0.483500000000     0.628350000000     0.0592578  
H381     H      0.918020000000     0.405370000000     0.565830000000     0.0457339  
H382     H      0.946610000000     0.472650000000     0.599720000000     0.0480477  
H383     H      0.045730000000     0.513830000000     0.602010000000     0.0667346  
H384     H      0.095070000000     0.468170000000     0.574070000000     0.138961   
H385     H      0.938770000000     0.604600000000     0.488930000000     0.0390509  
H386     H      0.943830000000     0.641760000000     0.540960000000     0.0473999  
H387     H      0.859680000000     0.526410000000     0.988450000000     0.00249385 
H388     H      0.820260000000     0.515110000000     0.541630000000     0.0606079  
H389     H      0.983830000000     0.606470000000     0.513100000000     0.0459672  
H390     H      0.943570000000     0.597680000000     0.564590000000     0.0451317  
H391     H      0.867710000000     0.519080000000     0.564190000000     0.0649763  
H392     H      0.823610000000     0.456970000000     0.503090000000     0.138563   
H393     H      0.306070000000     0.069640000000     0.954320000000     0.0387519  
H394     H      0.281740000000     0.109710000000     0.990810000000     0.0433897  
H395     H      0.388500000000     0.101880000000     0.955370000000     0.000807966
H396     H      0.425150000000     0.164490000000     0.993100000000     0.0598542  
H397     H      0.280740000000     0.094700000000     0.929280000000     0.0427604  
H398     H      0.310470000000     0.159370000000     0.965970000000     0.0446858  
H399     H      0.409290000000     0.197500000000     0.968290000000     0.0661252  
H400     H      0.456290000000     0.150290000000     0.938130000000     0.136716   
H401     H      0.325690000000     0.248360000000     0.723900000000     0.0354057  
H402     H      0.293150000000     0.188090000000     0.684840000000     0.0447753  
H403     H      0.409150000000     0.284940000000     0.721990000000     0.0030165  
H404     H      0.436850000000     0.246900000000     0.685420000000     0.056444   
H405     H      0.293160000000     0.198130000000     0.747390000000     0.0410407  
H406     H      0.310590000000     0.155550000000     0.708550000000     0.0460845  
H407     H      0.410110000000     0.197390000000     0.710620000000     0.0655043  
H408     H      0.472610000000     0.291250000000     0.739790000000     0.137675   
H409     H      0.483740000000     0.123930000000     0.824720000000     0.041789   
H410     H      0.521420000000     0.143920000000     0.770450000000     0.0476681  
H411     H      0.408980000000     0.049470000000     0.821270000000     0.00405012 
H412     H      0.396400000000     0.018360000000     0.765570000000     0.0689824  
H413     H      0.486120000000     0.173540000000     0.808770000000     0.0493968  
H414     H      0.473580000000     0.144410000000     0.751890000000     0.0448645  
H415     H      0.396040000000     0.066010000000     0.748430000000     0.0662208  
H416     H      0.340290000000     0.034810000000     0.826710000000     0.154495   
H417     H      0.032200000000     0.377120000000     0.901470000000     0.041274   
H418     H      0.044240000000     0.324990000000     0.934480000000     0.0456893  
H419     H      0.107700000000     0.451520000000     0.899540000000     0.00627535 
H420     H      0.167020000000     0.452900000000     0.936540000000     0.0624729  
H421     H      0.998270000000     0.363480000000     0.938510000000     0.045364   
H422     H      0.055530000000     0.358500000000     0.971280000000     0.0444766  
H423     H      0.129220000000     0.438100000000     0.971350000000     0.06483    
H424     H      0.153200000000     0.516630000000     0.920480000000     0.138579   
H425     H      0.240820000000     0.220720000000     0.902350000000     0.0393324  
H426     H      0.189280000000     0.217170000000     0.857290000000     0.0440519  
H427     H      0.315360000000     0.295400000000     0.903600000000     0.0048469  
H428     H      0.311160000000     0.345720000000     0.862360000000     0.0599626  
H429     H      0.232710000000     0.180000000000     0.871600000000     0.0438291  
H430     H      0.233000000000     0.230030000000     0.827140000000     0.0416309  
H431     H      0.305670000000     0.308830000000     0.828900000000     0.0626737  
H432     H      0.381240000000     0.340120000000     0.882400000000     0.14039    
H433     H      0.410830000000     0.424480000000     0.868110000000     0.0355829  
H434     H      0.439970000000     0.486700000000     0.905310000000     0.0485059  
H435     H      0.460440000000     0.389940000000     0.869460000000     0.00737623 
H436     H      0.527300000000     0.431750000000     0.904630000000     0.0576582  
H437     H      0.426860000000     0.473150000000     0.843280000000     0.0432372  
H438     H      0.489040000000     0.518930000000     0.880120000000     0.0466393  
H439     H      0.548310000000     0.480010000000     0.878290000000     0.0644778  
H440     H      0.518670000000     0.386600000000     0.850590000000     0.141407   
H441     H      0.532950000000     0.473560000000     0.620110000000     0.041045   
H442     H      0.605930000000     0.525500000000     0.593640000000     0.0439494  
H443     H      0.480090000000     0.514220000000     0.621530000000     0.0055398  
H444     H      0.521810000000     0.585440000000     0.593390000000     0.0651971  
H445     H      0.577800000000     0.494510000000     0.650500000000     0.0407839  
H446     H      0.615870000000     0.568030000000     0.623740000000     0.0413397  
H447     H      0.567710000000     0.604250000000     0.622610000000     0.0628706  
H448     H      0.461860000000     0.541740000000     0.662060000000     0.153442   
H449     H      0.895880000000     0.281970000000     0.952240000000     0.0391416  
H450     H      0.827200000000     0.240870000000     0.918810000000     0.0441369  
H451     H      0.943060000000     0.246610000000     0.951650000000     0.000774076
H452     H      0.911350000000     0.182150000000     0.915490000000     0.0587662  
H453     H      0.847000000000     0.260750000000     0.979050000000     0.042714   
H454     H      0.806510000000     0.192970000000     0.945510000000     0.0443254  
H455     H      0.863270000000     0.151840000000     0.942020000000     0.0645327  
H456     H      0.959090000000     0.196590000000     0.969490000000     0.138042   
H457     H      0.807040000000     0.198560000000     0.707220000000     0.040414   
H458     H      0.752170000000     0.170170000000     0.663350000000     0.0435069  
H459     H      0.854110000000     0.145410000000     0.700810000000     0.0080686  
H460     H      0.812650000000     0.087250000000     0.658990000000     0.0643466  
H461     H      0.753270000000     0.165980000000     0.726850000000     0.0460999  
H462     H      0.723260000000     0.115510000000     0.681430000000     0.040925   
H463     H      0.760060000000     0.068180000000     0.681050000000     0.068389   
H464     H      0.846710000000     0.081680000000     0.715740000000     0.141345   
H465     H      0.071220000000     0.292830000000     0.779030000000     0.037411   
H466     H      0.109730000000     0.263750000000     0.744700000000     0.0420224  
H467     H      0.109560000000     0.374250000000     0.778110000000     0.00102536 
H468     H      0.174720000000     0.405920000000     0.741370000000     0.0586423  
H469     H      0.091710000000     0.264380000000     0.805140000000     0.0425678  
H470     H      0.159420000000     0.289980000000     0.770570000000     0.0438994  
H471     H      0.204320000000     0.386820000000     0.767300000000     0.064098   
H472     H      0.162210000000     0.439590000000     0.795330000000     0.137407   
H473     H      0.150780000000     0.285920000000     0.526430000000     0.0415743  
H474     H      0.188240000000     0.261440000000     0.487930000000     0.0427082  
H475     H      0.203890000000     0.384850000000     0.523650000000     0.00698777 
H476     H      0.268060000000     0.404290000000     0.486400000000     0.060694   
H477     H      0.179550000000     0.264120000000     0.550360000000     0.0438182  
H478     H      0.240290000000     0.289500000000     0.511010000000     0.0393407  
H479     H      0.286000000000     0.372310000000     0.510920000000     0.064031   
H480     H      0.265790000000     0.441170000000     0.542730000000     0.142094   
H481     H      0.980850000000     0.290630000000     0.649140000000     0.0390615  
H482     H      0.049000000000     0.342300000000     0.619560000000     0.0454169  
H483     H      0.981360000000     0.218110000000     0.654230000000     0.00214291 
H484     H      0.040690000000     0.214030000000     0.621370000000     0.0613711  
H485     H      0.964180000000     0.304100000000     0.610360000000     0.0445907  
H486     H      0.029630000000     0.310480000000     0.581830000000     0.0443369  
H487     H      0.020830000000     0.227420000000     0.584130000000     0.0655293  
H488     H      0.961240000000     0.151750000000     0.636250000000     0.136925   
H489     H      0.319960000000     0.354310000000     0.731540000000     0.0398739  
H490     H      0.305190000000     0.326540000000     0.674730000000     0.0454871  
H491     H      0.315620000000     0.425830000000     0.732120000000     0.0045464  
H492     H      0.312610000000     0.454720000000     0.675440000000     0.0627468  
H493     H      0.369980000000     0.355860000000     0.716010000000     0.0461316  
H494     H      0.356460000000     0.373910000000     0.660230000000     0.0423702  
H495     H      0.362460000000     0.452640000000     0.663800000000     0.0611228  
H496     H      0.348600000000     0.497890000000     0.728670000000     0.139102   
H497     H      0.572320000000     0.973420000000     0.852960000000     0.0378362  
H498     H      0.498460000000     0.946110000000     0.878320000000     0.0451327  
H499     H      0.614930000000     0.054270000000     0.856240000000     0.00404412 
H500     H      0.571340000000     0.089480000000     0.876830000000     0.0596434  
H501     H      0.530320000000     0.945390000000     0.821190000000     0.0412303  
H502     H      0.481350000000     0.970070000000     0.845920000000     0.0455261  
H503     H      0.531030000000     0.064120000000     0.843400000000     0.0631516  
H504     H      0.637080000000     0.120080000000     0.835080000000     0.136929   
H505     H      0.546010000000     0.082580000000     0.619610000000     0.0442981  
H506     H      0.515210000000     0.097400000000     0.570680000000     0.0448475  
H507     H      0.442960000000     0.957840000000     0.636900000000     0.00612608 
H508     H      0.498230000000     0.977660000000     0.592930000000     0.0556704  
H509     H      0.505700000000     0.097770000000     0.633520000000     0.0389148  
H510     H      0.457960000000     0.064160000000     0.584880000000     0.0552287  
H511     H      0.443690000000     0.956250000000     0.574190000000     0.0534833  
H512     H      0.386650000000     0.959590000000     0.612430000000     0.13937    
H513     H      0.694870000000     0.076440000000     0.468680000000     0.0392466  
H514     H      0.714410000000     0.058070000000     0.522200000000     0.0474999  
H515     H      0.698930000000     0.149760000000     0.972470000000     0.00199729 
H516     H      0.712510000000     0.181280000000     0.529380000000     0.0602331  
H517     H      0.646620000000     0.027090000000     0.484250000000     0.0463763  
H518     H      0.664980000000     0.054060000000     0.541360000000     0.0450862  
H519     H      0.662600000000     0.132460000000     0.544240000000     0.06298    
H520     H      0.667760000000     0.190220000000     0.481980000000     0.137553   
H521     H      0.207670000000     0.813610000000     0.793490000000     0.0431551  
H522     H      0.261700000000     0.852990000000     0.749460000000     0.0452806  
H523     H      0.181600000000     0.911560000000     0.817580000000     0.00814654 
H524     H      0.153930000000     0.870070000000     0.767470000000     0.0577635  
H525     H      0.261210000000     0.850020000000     0.812430000000     0.0403885  
H526     H      0.281200000000     0.905980000000     0.768950000000     0.0572867  
H527     H      0.193330000000     0.925690000000     0.754960000000     0.0565789  
H528     H      0.243480000000     0.971260000000     0.802670000000     0.145505   
H529     H      0.143620000000     0.852850000000     0.539810000000     0.0449549  
H530     H      0.083510000000     0.813520000000     0.500420000000     0.0449534  
H531     H      0.196780000000     0.803180000000     0.537470000000     0.0072018  
H532     H      0.154720000000     0.740480000000     0.499870000000     0.0590219  
H533     H      0.092870000000     0.820730000000     0.563250000000     0.0485642  
H534     H      0.061950000000     0.762290000000     0.523200000000     0.0397643  
H535     H      0.103540000000     0.720890000000     0.523780000000     0.0612456  
H536     H      0.192960000000     0.742980000000     0.557210000000     0.140809   
H537     H      0.341860000000     0.891850000000     0.921600000000     0.0420488  
H538     H      0.374990000000     0.893900000000     0.976760000000     0.0450838  
H539     H      0.329370000000     0.965010000000     0.912690000000     0.00506399 
H540     H      0.371600000000     0.014570000000     0.457300000000     0.0597695  
H541     H      0.302120000000     0.849960000000     0.949640000000     0.0432711  
H542     H      0.332270000000     0.901800000000     0.996570000000     0.0414953  
H543     H      0.334460000000     0.976960000000     0.488460000000     0.0623491  
H544     H      0.293070000000     0.997590000000     0.929210000000     0.140885   
H545     H      0.729060000000     0.601090000000     0.945530000000     0.0393489  
H546     H      0.776610000000     0.571200000000     0.925020000000     0.0433808  
H547     H      0.768510000000     0.682650000000     0.944850000000     0.00258818 
H548     H      0.845040000000     0.714590000000     0.921470000000     0.0614036  
H549     H      0.739240000000     0.571740000000     0.978380000000     0.0420019  
H550     H      0.817050000000     0.598770000000     0.957960000000     0.0430982  
H551     H      0.862230000000     0.692150000000     0.954960000000     0.0658272  
H552     H      0.815500000000     0.747360000000     0.966770000000     0.139195   
H553     H      0.840090000000     0.683510000000     0.690750000000     0.0443043  
H554     H      0.901530000000     0.706430000000     0.729690000000     0.0421551  
H555     H      0.791140000000     0.584480000000     0.692580000000     0.00649613 
H556     H      0.833480000000     0.563370000000     0.730160000000     0.0569635  
H557     H      0.891370000000     0.704910000000     0.667280000000     0.0494033  
H558     H      0.924770000000     0.678170000000     0.706580000000     0.0364023  
H559     H      0.884740000000     0.594480000000     0.706190000000     0.0609911  
H560     H      0.794970000000     0.527910000000     0.673000000000     0.139956   
H561     H      0.653340000000     0.515530000000     0.826630000000     0.0419231  
H562     H      0.634740000000     0.485570000000     0.769690000000     0.047905   
H563     H      0.653820000000     0.588380000000     0.831770000000     0.00403755 
H564     H      0.632580000000     0.608720000000     0.778860000000     0.0625877  
H565     H      0.700450000000     0.514390000000     0.807550000000     0.0446293  
H566     H      0.682500000000     0.535150000000     0.753410000000     0.0418407  
H567     H      0.680630000000     0.611190000000     0.758420000000     0.0639132  
H568     H      0.686640000000     0.660130000000     0.824410000000     0.138954   
H569     H      0.017600000000     0.676270000000     0.824440000000     0.0417818  
H570     H      0.048850000000     0.686340000000     0.879390000000     0.0461265  
H571     H      0.027900000000     0.750470000000     0.811090000000     0.00376328 
H572     H      0.040890000000     0.803580000000     0.856700000000     0.0680144  
H573     H      0.971610000000     0.638380000000     0.850550000000     0.0446185  
H574     H      0.001190000000     0.686430000000     0.897850000000     0.041168   
H575     H      0.992120000000     0.760820000000     0.878460000000     0.0662689  
H576     H      0.972410000000     0.756740000000     0.789180000000     0.14732    
N1       N      0.721590000000     0.951500000000     0.355660000000    -0.185491   
N2       N      0.765680000000     0.044930000000     0.352380000000    -0.16374    
N3       N      0.890520000000     0.290590000000     0.285460000000    -0.184575   
N4       N      0.937040000000     0.379480000000     0.261300000000    -0.164281   
N5       N      0.106420000000     0.716320000000     0.191130000000    -0.184133   
N6       N      0.056820000000     0.622630000000     0.190600000000    -0.163566   
N7       N      0.587770000000     0.628050000000     0.455910000000    -0.185997   
N8       N      0.628920000000     0.720420000000     0.445160000000    -0.164025   
N9       N      0.248630000000     0.958880000000     0.118850000000    -0.18606    
N10      N      0.298340000000     0.052510000000     0.118590000000    -0.163706   
N11      N      0.462690000000     0.391950000000     0.040320000000    -0.185094   
N12      N      0.418090000000     0.300040000000     0.055870000000    -0.164007   
N13      N      0.669600000000     0.797350000000     0.242910000000    -0.181925   
N14      N      0.669800000000     0.783350000000     0.311990000000    -0.163893   
N15      N      0.675360000000     0.868910000000     0.056230000000    -0.183008   
N16      N      0.680410000000     0.887370000000     0.987760000000    -0.163899   
N17      N      0.751510000000     0.697400000000     0.113220000000    -0.186711   
N18      N      0.716290000000     0.755000000000     0.117060000000    -0.163435   
N19      N      0.628190000000     0.911700000000     0.182090000000    -0.186359   
N20      N      0.586950000000     0.964190000000     0.187650000000    -0.165038   
N21      N      0.996590000000     0.530200000000     0.316410000000    -0.18454    
N22      N      0.990590000000     0.534470000000     0.385780000000    -0.164342   
N23      N      0.990790000000     0.438690000000     0.062820000000    -0.185702   
N24      N      0.992120000000     0.462790000000     0.129570000000    -0.162671   
N25      N      0.923390000000     0.541850000000     0.008250000000    -0.184941   
N26      N      0.879900000000     0.580240000000     0.043870000000    -0.163548   
N27      N      0.353470000000     0.126160000000     0.427010000000    -0.187752   
N28      N      0.354420000000     0.145650000000     0.494430000000    -0.163403   
N29      N      0.365700000000     0.227960000000     0.250420000000    -0.185791   
N30      N      0.364280000000     0.208850000000     0.182650000000    -0.163677   
N31      N      0.420150000000     0.113460000000     0.307930000000    -0.187025   
N32      N      0.460730000000     0.079890000000     0.264700000000    -0.164128   
N33      N      0.057070000000     0.429730000000     0.436590000000    -0.184914   
N34      N      0.108260000000     0.386580000000     0.435720000000    -0.163508   
N35      N      0.297980000000     0.241230000000     0.371110000000    -0.185419   
N36      N      0.247640000000     0.283690000000     0.359590000000    -0.164991   
N37      N      0.470190000000     0.444570000000     0.340000000000    -0.185426   
N38      N      0.491470000000     0.467930000000     0.407270000000    -0.162369   
N39      N      0.531860000000     0.520050000000     0.153880000000    -0.186647   
N40      N      0.562650000000     0.554250000000     0.090010000000    -0.16493    
N41      N      0.885600000000     0.226960000000     0.481760000000    -0.185584   
N42      N      0.861530000000     0.203220000000     0.414910000000    -0.162489   
N43      N      0.797410000000     0.138100000000     0.227480000000    -0.183842   
N44      N      0.784780000000     0.130980000000     0.158200000000    -0.162541   
N45      N      0.128870000000     0.336280000000     0.307690000000    -0.186677   
N46      N      0.150060000000     0.335090000000     0.240650000000    -0.163923   
N47      N      0.208240000000     0.335620000000     0.051820000000    -0.185201   
N48      N      0.225420000000     0.332970000000     0.984190000000    -0.164698   
N49      N      0.955720000000     0.238100000000     0.114010000000    -0.185636   
N50      N      0.050620000000     0.280800000000     0.118460000000    -0.163704   
N51      N      0.373080000000     0.419670000000     0.221260000000    -0.185595   
N52      N      0.305300000000     0.388970000000     0.172460000000    -0.164124   
N53      N      0.567560000000     0.017080000000     0.318440000000    -0.187403   
N54      N      0.529010000000     0.017930000000     0.378950000000    -0.165279   
N55      N      0.485100000000     0.029190000000     0.139190000000    -0.186652   
N56      N      0.487940000000     0.026380000000     0.069180000000    -0.16046    
N57      N      0.642590000000     0.087590000000     0.985780000000    -0.186128   
N58      N      0.715390000000     0.120250000000     0.030440000000    -0.164111   
N59      N      0.211480000000     0.869640000000     0.317860000000    -0.185141   
N60      N      0.215610000000     0.878810000000     0.247990000000    -0.159082   
N61      N      0.141410000000     0.798020000000     0.064790000000    -0.183884   
N62      N      0.122440000000     0.780260000000     0.997240000000    -0.165215   
N63      N      0.291520000000     0.905430000000     0.439620000000    -0.184707   
N64      N      0.378150000000     0.957040000000     0.467550000000    -0.164998   
N65      N      0.776490000000     0.643610000000     0.481620000000    -0.187426   
N66      N      0.816590000000     0.642980000000     0.421670000000    -0.164436   
N67      N      0.846600000000     0.633620000000     0.165250000000    -0.185178   
N68      N      0.865200000000     0.634740000000     0.232700000000    -0.166253   
N69      N      0.706450000000     0.579510000000     0.312580000000    -0.186022   
N70      N      0.630200000000     0.545770000000     0.271280000000    -0.163642   
N71      N      0.969920000000     0.696930000000     0.334170000000    -0.191058   
N72      N      0.045830000000     0.746930000000     0.373760000000    -0.165288   
N73      N      0.721590000000     0.951500000000     0.855660000000    -0.185491   
N74      N      0.765680000000     0.044930000000     0.852370000000    -0.163766   
N75      N      0.890520000000     0.290590000000     0.785460000000    -0.184536   
N76      N      0.937040000000     0.379480000000     0.761300000000    -0.164285   
N77      N      0.106410000000     0.716320000000     0.691130000000    -0.184098   
N78      N      0.056830000000     0.622630000000     0.690600000000    -0.163579   
N79      N      0.587770000000     0.628050000000     0.955910000000    -0.186049   
N80      N      0.628920000000     0.720420000000     0.945160000000    -0.16403    
N81      N      0.248630000000     0.958870000000     0.618850000000    -0.186049   
N82      N      0.298340000000     0.052510000000     0.618590000000    -0.163715   
N83      N      0.462690000000     0.391950000000     0.540320000000    -0.185082   
N84      N      0.418090000000     0.300040000000     0.555870000000    -0.164011   
N85      N      0.669610000000     0.797360000000     0.742920000000    -0.181899   
N86      N      0.669800000000     0.783350000000     0.811990000000    -0.163904   
N87      N      0.675360000000     0.868910000000     0.556230000000    -0.183073   
N88      N      0.680410000000     0.887370000000     0.487760000000    -0.163833   
N89      N      0.751510000000     0.697410000000     0.613220000000    -0.186722   
N90      N      0.716290000000     0.755000000000     0.617050000000    -0.163446   
N91      N      0.628190000000     0.911700000000     0.682090000000    -0.186341   
N92      N      0.586950000000     0.964190000000     0.687650000000    -0.165045   
N93      N      0.996590000000     0.530200000000     0.816410000000    -0.184576   
N94      N      0.990590000000     0.534470000000     0.885790000000    -0.164402   
N95      N      0.990790000000     0.438690000000     0.562820000000    -0.185714   
N96      N      0.992120000000     0.462800000000     0.629570000000    -0.162705   
N97      N      0.923390000000     0.541850000000     0.508250000000    -0.184886   
N98      N      0.879900000000     0.580240000000     0.543870000000    -0.163481   
N99      N      0.353470000000     0.126160000000     0.927010000000    -0.187764   
N100     N      0.354420000000     0.145650000000     0.994430000000    -0.163478   
N101     N      0.365700000000     0.227960000000     0.750420000000    -0.185853   
N102     N      0.364280000000     0.208850000000     0.682650000000    -0.16367    
N103     N      0.420150000000     0.113460000000     0.807930000000    -0.187041   
N104     N      0.460730000000     0.079890000000     0.764700000000    -0.16412    
N105     N      0.057070000000     0.429730000000     0.936600000000    -0.18498    
N106     N      0.108260000000     0.386580000000     0.935720000000    -0.163486   
N107     N      0.297980000000     0.241230000000     0.871110000000    -0.185415   
N108     N      0.247640000000     0.283690000000     0.859590000000    -0.164993   
N109     N      0.470190000000     0.444570000000     0.840000000000    -0.18541    
N110     N      0.491470000000     0.467920000000     0.907280000000    -0.162453   
N111     N      0.531860000000     0.520040000000     0.653880000000    -0.186655   
N112     N      0.562650000000     0.554250000000     0.590010000000    -0.164926   
N113     N      0.885600000000     0.226960000000     0.981760000000    -0.185585   
N114     N      0.861530000000     0.203220000000     0.914910000000    -0.16252    
N115     N      0.797410000000     0.138100000000     0.727480000000    -0.183836   
N116     N      0.784780000000     0.130980000000     0.658200000000    -0.162557   
N117     N      0.128880000000     0.336290000000     0.807690000000    -0.186603   
N118     N      0.150060000000     0.335090000000     0.740650000000    -0.163924   
N119     N      0.208240000000     0.335620000000     0.551820000000    -0.185249   
N120     N      0.225420000000     0.332970000000     0.484180000000    -0.164723   
N121     N      0.955720000000     0.238100000000     0.614010000000    -0.185688   
N122     N      0.050620000000     0.280800000000     0.618460000000    -0.163698   
N123     N      0.373090000000     0.419670000000     0.721260000000    -0.185651   
N124     N      0.305300000000     0.388970000000     0.672460000000    -0.16412    
N125     N      0.567560000000     0.017080000000     0.818440000000    -0.187398   
N126     N      0.529010000000     0.017930000000     0.878950000000    -0.165283   
N127     N      0.485100000000     0.029190000000     0.639190000000    -0.186696   
N128     N      0.487940000000     0.026380000000     0.569180000000    -0.1605     
N129     N      0.642590000000     0.087590000000     0.485780000000    -0.186131   
N130     N      0.715390000000     0.120250000000     0.530440000000    -0.164067   
N131     N      0.211480000000     0.869640000000     0.817860000000    -0.185075   
N132     N      0.215610000000     0.878810000000     0.747990000000    -0.159108   
N133     N      0.141410000000     0.798020000000     0.564790000000    -0.183899   
N134     N      0.122440000000     0.780260000000     0.497240000000    -0.165155   
N135     N      0.291520000000     0.905430000000     0.939620000000    -0.184633   
N136     N      0.378150000000     0.957050000000     0.967550000000    -0.164957   
N137     N      0.776490000000     0.643620000000     0.981610000000    -0.187371   
N138     N      0.816590000000     0.642980000000     0.921670000000    -0.164442   
N139     N      0.846600000000     0.633620000000     0.665250000000    -0.185153   
N140     N      0.865190000000     0.634740000000     0.732700000000    -0.166256   
N141     N      0.706450000000     0.579510000000     0.812580000000    -0.186005   
N142     N      0.630200000000     0.545770000000     0.771280000000    -0.163645   
N143     N      0.969920000000     0.696930000000     0.834170000000    -0.191028   
N144     N      0.045830000000     0.746930000000     0.873760000000    -0.165304   
Ni1      Ni     0.834820000000     0.602220000000     0.330300000000     0.995868   
Ni2      Ni     0.841080000000     0.673260000000     0.322830000000     1.02635    
Ni3      Ni     0.176910000000     0.796660000000     0.404300000000     1.00487    
Ni4      Ni     0.158920000000     0.854300000000     0.411470000000     1.01588    
Ni5      Ni     0.509690000000     0.988350000000     0.978020000000     1.01398    
Ni6      Ni     0.511050000000     0.057240000000     0.470710000000     1.00739    
Ni7      Ni     0.173220000000     0.298640000000     0.148940000000     1.00146    
Ni8      Ni     0.182420000000     0.371110000000     0.143050000000     1.00394    
Ni9      Ni     0.840320000000     0.148090000000     0.065210000000     1.00882    
Ni10     Ni     0.832810000000     0.211690000000     0.075770000000     0.995414   
Ni11     Ni     0.503910000000     0.449840000000     0.241430000000     0.997501   
Ni12     Ni     0.499130000000     0.514810000000     0.252630000000     1.01468    
Ni13     Ni     0.208130000000     0.371660000000     0.391750000000     1.00521    
Ni14     Ni     0.146060000000     0.298450000000     0.400560000000     0.999979   
Ni15     Ni     0.395290000000     0.208890000000     0.345700000000     1.01073    
Ni16     Ni     0.323320000000     0.146640000000     0.332520000000     1.00525    
Ni17     Ni     0.025850000000     0.518270000000     0.479900000000     1.00708    
Ni18     Ni     0.955760000000     0.452980000000     0.967800000000     1.00092    
Ni19     Ni     0.710330000000     0.862360000000     0.153030000000     1.00288    
Ni20     Ni     0.634160000000     0.804130000000     0.146030000000     1.00615    
Ni21     Ni     0.845690000000     0.673970000000     0.069950000000     1.02676    
Ni22     Ni     0.779310000000     0.603020000000     0.076550000000     1.00021    
Ni23     Ni     0.558860000000     0.058270000000     0.224880000000     1.00751    
Ni24     Ni     0.493140000000     0.987060000000     0.232520000000     1.01412    
Ni25     Ni     0.323130000000     0.174400000000     0.086070000000     1.00842    
Ni26     Ni     0.395190000000     0.179510000000     0.091060000000     0.994153   
Ni27     Ni     0.493560000000     0.513700000000     0.001740000000     1.02005    
Ni28     Ni     0.559590000000     0.507400000000     0.995990000000     0.987227   
Ni29     Ni     0.146870000000     0.843690000000     0.159520000000     1.02061    
Ni30     Ni     0.210220000000     0.833040000000     0.153300000000     0.998274   
Ni31     Ni     0.960010000000     0.496320000000     0.219310000000     1.00214    
Ni32     Ni     0.032100000000     0.501940000000     0.226050000000     0.99943    
Ni33     Ni     0.795240000000     0.171070000000     0.325040000000     1.00424    
Ni34     Ni     0.862220000000     0.166760000000     0.317740000000     0.998516   
Ni35     Ni     0.637580000000     0.828130000000     0.396460000000     1.00633    
Ni36     Ni     0.713200000000     0.842880000000     0.403280000000     0.992155   
Ni37     Ni     0.834820000000     0.602220000000     0.830300000000     0.995892   
Ni38     Ni     0.841080000000     0.673260000000     0.822830000000     1.02619    
Ni39     Ni     0.176910000000     0.796660000000     0.904300000000     1.0049     
Ni40     Ni     0.158920000000     0.854300000000     0.911470000000     1.0157     
Ni41     Ni     0.509690000000     0.988350000000     0.478020000000     1.01407    
Ni42     Ni     0.511050000000     0.057240000000     0.970710000000     1.0073     
Ni43     Ni     0.173220000000     0.298640000000     0.648940000000     1.00138    
Ni44     Ni     0.182430000000     0.371110000000     0.643050000000     1.00414    
Ni45     Ni     0.840320000000     0.148090000000     0.565210000000     1.00863    
Ni46     Ni     0.832810000000     0.211690000000     0.575770000000     0.995445   
Ni47     Ni     0.503910000000     0.449840000000     0.741430000000     0.997465   
Ni48     Ni     0.499130000000     0.514810000000     0.752630000000     1.01479    
Ni49     Ni     0.208130000000     0.371660000000     0.891750000000     1.00513    
Ni50     Ni     0.146060000000     0.298450000000     0.900560000000     0.999981   
Ni51     Ni     0.395290000000     0.208890000000     0.845700000000     1.01073    
Ni52     Ni     0.323320000000     0.146640000000     0.832520000000     1.00518    
Ni53     Ni     0.025860000000     0.518270000000     0.979900000000     1.00701    
Ni54     Ni     0.955750000000     0.452980000000     0.467800000000     1.00118    
Ni55     Ni     0.710330000000     0.862360000000     0.653030000000     1.00289    
Ni56     Ni     0.634160000000     0.804140000000     0.646030000000     1.00612    
Ni57     Ni     0.845690000000     0.673970000000     0.569940000000     1.02684    
Ni58     Ni     0.779310000000     0.603020000000     0.576550000000     1.00022    
Ni59     Ni     0.558860000000     0.058270000000     0.724880000000     1.00753    
Ni60     Ni     0.493140000000     0.987060000000     0.732520000000     1.0141     
Ni61     Ni     0.323130000000     0.174400000000     0.586070000000     1.00828    
Ni62     Ni     0.395190000000     0.179510000000     0.591060000000     0.994322   
Ni63     Ni     0.493560000000     0.513700000000     0.501740000000     1.0199     
Ni64     Ni     0.559590000000     0.507400000000     0.495990000000     0.987373   
Ni65     Ni     0.146870000000     0.843690000000     0.659520000000     1.02083    
Ni66     Ni     0.210230000000     0.833040000000     0.653300000000     0.998186   
Ni67     Ni     0.960010000000     0.496320000000     0.719310000000     1.00209    
Ni68     Ni     0.032100000000     0.501940000000     0.726050000000     0.999413   
Ni69     Ni     0.795240000000     0.171070000000     0.825040000000     1.00421    
Ni70     Ni     0.862220000000     0.166760000000     0.817740000000     0.998664   
Ni71     Ni     0.637580000000     0.828120000000     0.896460000000     1.00647    
Ni72     Ni     0.713210000000     0.842880000000     0.903280000000     0.992141   
O1       O      0.844460000000     0.601320000000     0.283600000000    -0.452439   
O2       O      0.824850000000     0.607300000000     0.376580000000    -0.451117   
O3       O      0.771120000000     0.576340000000     0.322610000000    -0.452917   
O4       O      0.899610000000     0.633400000000     0.336850000000    -0.448032   
O5       O      0.904230000000     0.699090000000     0.329600000000    -0.446504   
O6       O      0.776800000000     0.642600000000     0.316220000000    -0.433902   
O7       O      0.832240000000     0.674380000000     0.369750000000    -0.449763   
O8       O      0.851260000000     0.668170000000     0.276610000000    -0.452089   
O9       O      0.156640000000     0.778160000000     0.448850000000    -0.45203    
O10      O      0.196490000000     0.819400000000     0.360080000000    -0.450218   
O11      O      0.235950000000     0.837510000000     0.420670000000    -0.45655    
O12      O      0.116090000000     0.759190000000     0.388820000000    -0.449984   
O13      O      0.100680000000     0.814250000000     0.393580000000    -0.455066   
O14      O      0.219120000000     0.891090000000     0.428250000000    -0.43185    
O15      O      0.181060000000     0.874090000000     0.367540000000    -0.450627   
O16      O      0.137140000000     0.830210000000     0.454980000000    -0.449554   
O17      O      0.501780000000     0.993860000000     0.024590000000    -0.451796   
O18      O      0.516210000000     0.986820000000     0.430830000000    -0.452447   
O19      O      0.574310000000     0.022300000000     0.982800000000    -0.453515   
O20      O      0.445820000000     0.959130000000     0.472940000000    -0.45786    
O21      O      0.446280000000     0.022890000000     0.464990000000    -0.447032   
O22      O      0.575160000000     0.086480000000     0.977410000000    -0.431415   
O23      O      0.520470000000     0.052650000000     0.424360000000    -0.451535   
O24      O      0.502270000000     0.057880000000     0.017490000000    -0.45174    
O25      O      0.157620000000     0.300140000000     0.194630000000    -0.449602   
O26      O      0.188600000000     0.301570000000     0.102860000000    -0.45319    
O27      O      0.236320000000     0.327190000000     0.160790000000    -0.447818   
O28      O      0.111330000000     0.275100000000     0.136480000000    -0.452528   
O29      O      0.119420000000     0.342550000000     0.130800000000    -0.447662   
O30      O      0.244200000000     0.394610000000     0.155640000000    -0.449149   
O31      O      0.198480000000     0.369800000000     0.097490000000    -0.436957   
O32      O      0.167000000000     0.368180000000     0.189180000000    -0.450446   
O33      O      0.866450000000     0.174320000000     0.022890000000    -0.430076   
O34      O      0.814700000000     0.126380000000     0.108310000000    -0.44414    
O35      O      0.780580000000     0.120600000000     0.046050000000    -0.44683    
O36      O      0.898710000000     0.179370000000     0.085460000000    -0.428737   
O37      O      0.892570000000     0.239270000000     0.094990000000    -0.448561   
O38      O      0.774190000000     0.180360000000     0.056010000000    -0.452289   
O39      O      0.806750000000     0.185320000000     0.118140000000    -0.445277   
O40      O      0.857980000000     0.233010000000     0.032370000000    -0.448705   
O41      O      0.519870000000     0.471080000000     0.196460000000    -0.449282   
O42      O      0.488870000000     0.433600000000     0.287290000000    -0.427823   
O43      O      0.440500000000     0.420700000000     0.230040000000    -0.447901   
O44      O      0.566340000000     0.482960000000     0.253570000000    -0.447337   
O45      O      0.562340000000     0.543920000000     0.264010000000    -0.447694   
O46      O      0.436960000000     0.481800000000     0.240300000000    -0.434292   
O47      O      0.482880000000     0.493570000000     0.297480000000    -0.450184   
O48      O      0.514370000000     0.531220000000     0.206920000000    -0.433824   
O49      O      0.182290000000     0.370280000000     0.348910000000    -0.431286   
O50      O      0.229250000000     0.368530000000     0.435240000000    -0.450241   
O51      O      0.240580000000     0.344360000000     0.373500000000    -0.447243   
O52      O      0.172210000000     0.393960000000     0.411050000000    -0.448673   
O53      O      0.113860000000     0.325820000000     0.419310000000    -0.446642   
O54      O      0.182030000000     0.276180000000     0.381220000000    -0.452408   
O55      O      0.172020000000     0.299600000000     0.443200000000    -0.449964   
O56      O      0.124800000000     0.301650000000     0.357150000000    -0.453476   
O57      O      0.389960000000     0.181910000000     0.388470000000    -0.432901   
O58      O      0.396560000000     0.230990000000     0.301800000000    -0.427977   
O59      O      0.363220000000     0.238040000000     0.361450000000    -0.427469   
O60      O      0.422280000000     0.176000000000     0.328950000000    -0.445865   
O61      O      0.355330000000     0.117530000000     0.316880000000    -0.435675   
O62      O      0.296360000000     0.179420000000     0.349290000000    -0.456626   
O63      O      0.328770000000     0.173450000000     0.289660000000    -0.450589   
O64      O      0.322020000000     0.124440000000     0.376380000000    -0.453338   
O65      O      0.023780000000     0.539500000000     0.436320000000    -0.447181   
O66      O      0.024310000000     0.492560000000     0.022580000000    -0.430451   
O67      O      0.055660000000     0.488780000000     0.461640000000    -0.42672    
O68      O      0.990710000000     0.543580000000     0.996990000000    -0.448267   
O69      O      0.925740000000     0.482360000000     0.985350000000    -0.435839   
O70      O      0.990480000000     0.427330000000     0.450900000000    -0.449919   
O71      O      0.957800000000     0.432310000000     0.011830000000    -0.445114   
O72      O      0.957820000000     0.478890000000     0.424960000000    -0.445149   
O73      O      0.708910000000     0.878590000000     0.107550000000    -0.446972   
O74      O      0.707150000000     0.841770000000     0.197920000000    -0.449396   
O75      O      0.728580000000     0.821510000000     0.138100000000    -0.453867   
O76      O      0.686830000000     0.899740000000     0.167550000000    -0.436352   
O77      O      0.615900000000     0.844930000000     0.161280000000    -0.450852   
O78      O      0.657600000000     0.766800000000     0.131110000000    -0.444458   
O79      O      0.635810000000     0.787730000000     0.191460000000    -0.429525   
O80      O      0.637270000000     0.824930000000     0.101230000000    -0.434124   
O81      O      0.861060000000     0.668420000000     0.114680000000    -0.451965   
O82      O      0.825080000000     0.675240000000     0.025740000000    -0.436995   
O83      O      0.812060000000     0.699840000000     0.086750000000    -0.435611   
O84      O      0.875910000000     0.643330000000     0.054380000000    -0.451766   
O85      O      0.813840000000     0.577110000000     0.060310000000    -0.446906   
O86      O      0.749470000000     0.634190000000     0.092940000000    -0.446773   
O87      O      0.763660000000     0.608500000000     0.031880000000    -0.456031   
O88      O      0.799540000000     0.601660000000     0.120650000000    -0.441418   
O89      O      0.577400000000     0.052540000000     0.268450000000    -0.43499    
O90      O      0.535720000000     0.059810000000     0.181930000000    -0.455639   
O91      O      0.525290000000     0.083810000000     0.243710000000    -0.446008   
O92      O      0.588000000000     0.027560000000     0.206430000000    -0.445008   
O93      O      0.525970000000     0.961530000000     0.213420000000    -0.457198   
O94      O      0.463840000000     0.017310000000     0.250560000000    -0.450883   
O95      O      0.474580000000     0.993000000000     0.188910000000    -0.453212   
O96      O      0.516730000000     0.985610000000     0.275590000000    -0.455143   
O97      O      0.321750000000     0.156470000000     0.040730000000    -0.449695   
O98      O      0.328780000000     0.191730000000     0.131880000000    -0.450893   
O99      O      0.354540000000     0.235620000000     0.072330000000    -0.450398   
O100     O      0.296570000000     0.113970000000     0.099950000000    -0.455284   
O101     O      0.363420000000     0.117860000000     0.104920000000    -0.443244   
O102     O      0.421780000000     0.240180000000     0.076680000000    -0.448748   
O103     O      0.396740000000     0.197810000000     0.136320000000    -0.447396   
O104     O      0.389410000000     0.161920000000     0.045360000000    -0.449252   
O105     O      0.514990000000     0.538050000000     0.045310000000    -0.446045   
O106     O      0.477090000000     0.489950000000     0.457550000000    -0.443097   
O107     O      0.464000000000     0.454900000000     0.020270000000    -0.433547   
O108     O      0.526880000000     0.571490000000     0.482790000000    -0.436268   
O109     O      0.589180000000     0.566850000000     0.477340000000    -0.444328   
O110     O      0.525570000000     0.448940000000     0.014990000000    -0.450091   
O111     O      0.538430000000     0.483290000000     0.452360000000    -0.44515    
O112     O      0.576100000000     0.530980000000     0.040130000000    -0.447732   
O113     O      0.167950000000     0.864520000000     0.203690000000    -0.448978   
O114     O      0.130350000000     0.822820000000     0.114870000000    -0.449101   
O115     O      0.113400000000     0.783680000000     0.175810000000    -0.431167   
O116     O      0.184020000000     0.902450000000     0.142580000000    -0.434444   
O117     O      0.243450000000     0.893090000000     0.136400000000    -0.44819    
O118     O      0.172790000000     0.774090000000     0.170510000000    -0.44901    
O119     O      0.188780000000     0.811520000000     0.109320000000    -0.438144   
O120     O      0.227240000000     0.854610000000     0.197800000000    -0.450438   
O121     O      0.964490000000     0.515160000000     0.264540000000    -0.45221    
O122     O      0.959340000000     0.476380000000     0.174610000000    -0.446783   
O123     O      0.933430000000     0.436490000000     0.235230000000    -0.451435   
O124     O      0.991910000000     0.557420000000     0.204440000000    -0.444992   
O125     O      0.058870000000     0.561830000000     0.210580000000    -0.449941   
O126     O      0.000590000000     0.441340000000     0.241440000000    -0.448549   
O127     O      0.027160000000     0.482580000000     0.180640000000    -0.446418   
O128     O      0.032420000000     0.521660000000     0.270890000000    -0.43574    
O129     O      0.780810000000     0.153200000000     0.279500000000    -0.447008   
O130     O      0.814680000000     0.190070000000     0.370010000000    -0.444528   
O131     O      0.828750000000     0.231330000000     0.310040000000    -0.43288    
O132     O      0.765770000000     0.109680000000     0.339080000000    -0.444434   
O133     O      0.828890000000     0.106510000000     0.332550000000    -0.449748   
O134     O      0.891410000000     0.227730000000     0.303120000000    -0.450908   
O135     O      0.876860000000     0.185180000000     0.363340000000    -0.446175   
O136     O      0.842670000000     0.147740000000     0.272780000000    -0.4359     
O137     O      0.642970000000     0.854770000000     0.439260000000    -0.44673    
O138     O      0.636690000000     0.801570000000     0.354270000000    -0.446921   
O139     O      0.618080000000     0.772360000000     0.417900000000    -0.454046   
O140     O      0.662310000000     0.885500000000     0.375550000000    -0.430451   
O141     O      0.732750000000     0.898980000000     0.382000000000    -0.452691   
O142     O      0.688440000000     0.785270000000     0.424210000000    -0.444952   
O143     O      0.707850000000     0.816550000000     0.360240000000    -0.446467   
O144     O      0.713830000000     0.869070000000     0.445640000000    -0.445488   
O145     O      0.649630000000     0.948180000000     0.358810000000    -0.26917    
O146     O      0.823470000000     0.296370000000     0.291120000000    -0.267748   
O147     O      0.036970000000     0.718120000000     0.187250000000    -0.265686   
O148     O      0.514850000000     0.622430000000     0.447670000000    -0.267982   
O149     O      0.179940000000     0.962060000000     0.112300000000    -0.267863   
O150     O      0.390510000000     0.387790000000     0.535330000000    -0.268063   
O151     O      0.592180000000     0.739690000000     0.240960000000    -0.265502   
O152     O      0.597720000000     0.848910000000     0.055750000000    -0.271125   
O153     O      0.825270000000     0.758730000000     0.127240000000    -0.268487   
O154     O      0.700570000000     0.978100000000     0.175820000000    -0.274534   
O155     O      0.074490000000     0.584780000000     0.318950000000    -0.274391   
O156     O      0.071160000000     0.471260000000     0.062270000000    -0.269159   
O157     O      0.855010000000     0.470900000000     0.011890000000    -0.269324   
O158     O      0.433420000000     0.155480000000     0.426790000000    -0.270709   
O159     O      0.446690000000     0.265630000000     0.250980000000    -0.267335   
O160     O      0.349490000000     0.044180000000     0.303290000000    -0.270892   
O161     O      0.126310000000     0.500640000000     0.435150000000    -0.266406   
O162     O      0.366880000000     0.311910000000     0.369490000000    -0.265764   
O163     O      0.516760000000     0.411080000000     0.339230000000    -0.268938   
O164     O      0.494160000000     0.563040000000     0.156920000000    -0.27129    
O165     O      0.932310000000     0.193710000000     0.481550000000    -0.269444   
O166     O      0.821610000000     0.084750000000     0.225450000000    -0.274994   
O167     O      0.164530000000     0.415730000000     0.307330000000    -0.270536   
O168     O      0.261990000000     0.413230000000     0.052650000000    -0.272214   
O169     O      0.951750000000     0.167060000000     0.119920000000    -0.267574   
O170     O      0.371130000000     0.488330000000     0.224130000000    -0.267737   
O171     O      0.614950000000     0.096600000000     0.319960000000    -0.267547   
O172     O      0.411200000000     0.990320000000     0.117620000000    -0.278358   
O173     O      0.645550000000     0.158450000000     0.986650000000    -0.268371   
O174     O      0.249270000000     0.945980000000     0.304930000000    -0.27236    
O175     O      0.167720000000     0.746130000000     0.066560000000    -0.271579   
O176     O      0.281180000000     0.968970000000     0.441450000000    -0.267515   
O177     O      0.812880000000     0.722950000000     0.481270000000    -0.270251   
O178     O      0.820110000000     0.555850000000     0.163530000000    -0.273172   
O179     O      0.707120000000     0.649120000000     0.316990000000    -0.267809   
O180     O      0.976410000000     0.765210000000     0.313080000000    -0.274213   
O181     O      0.844460000000     0.601320000000     0.783600000000    -0.452423   
O182     O      0.824860000000     0.607300000000     0.876580000000    -0.451071   
O183     O      0.771120000000     0.576340000000     0.822610000000    -0.452922   
O184     O      0.899610000000     0.633400000000     0.836850000000    -0.448023   
O185     O      0.904230000000     0.699090000000     0.829600000000    -0.446474   
O186     O      0.776790000000     0.642600000000     0.816220000000    -0.433785   
O187     O      0.832240000000     0.674380000000     0.869750000000    -0.449719   
O188     O      0.851250000000     0.668170000000     0.776610000000    -0.452021   
O189     O      0.156650000000     0.778170000000     0.948850000000    -0.452082   
O190     O      0.196490000000     0.819400000000     0.860080000000    -0.450179   
O191     O      0.235950000000     0.837500000000     0.920670000000    -0.45637    
O192     O      0.116090000000     0.759190000000     0.888820000000    -0.449995   
O193     O      0.100680000000     0.814250000000     0.893580000000    -0.455045   
O194     O      0.219120000000     0.891100000000     0.928250000000    -0.43163    
O195     O      0.181060000000     0.874100000000     0.867540000000    -0.450456   
O196     O      0.137140000000     0.830210000000     0.954980000000    -0.449546   
O197     O      0.501780000000     0.993870000000     0.524590000000    -0.451965   
O198     O      0.516210000000     0.986820000000     0.930830000000    -0.452426   
O199     O      0.574310000000     0.022300000000     0.482800000000    -0.453523   
O200     O      0.445820000000     0.959120000000     0.972940000000    -0.457734   
O201     O      0.446280000000     0.022890000000     0.964990000000    -0.446962   
O202     O      0.575160000000     0.086480000000     0.477410000000    -0.431422   
O203     O      0.520470000000     0.052650000000     0.924360000000    -0.451515   
O204     O      0.502270000000     0.057880000000     0.517490000000    -0.45183    
O205     O      0.157620000000     0.300140000000     0.694630000000    -0.449553   
O206     O      0.188600000000     0.301570000000     0.602860000000    -0.453218   
O207     O      0.236320000000     0.327190000000     0.660790000000    -0.447822   
O208     O      0.111330000000     0.275100000000     0.636480000000    -0.452505   
O209     O      0.119420000000     0.342550000000     0.630800000000    -0.447596   
O210     O      0.244200000000     0.394610000000     0.655640000000    -0.44925    
O211     O      0.198480000000     0.369790000000     0.597500000000    -0.437195   
O212     O      0.167000000000     0.368180000000     0.689180000000    -0.45051    
O213     O      0.866450000000     0.174320000000     0.522880000000    -0.429908   
O214     O      0.814700000000     0.126380000000     0.608310000000    -0.444042   
O215     O      0.780590000000     0.120600000000     0.546050000000    -0.446756   
O216     O      0.898710000000     0.179370000000     0.585470000000    -0.428689   
O217     O      0.892570000000     0.239270000000     0.594990000000    -0.448573   
O218     O      0.774190000000     0.180360000000     0.556010000000    -0.452241   
O219     O      0.806750000000     0.185320000000     0.618140000000    -0.445308   
O220     O      0.857970000000     0.233010000000     0.532370000000    -0.448562   
O221     O      0.519870000000     0.471080000000     0.696460000000    -0.449275   
O222     O      0.488880000000     0.433600000000     0.787290000000    -0.427618   
O223     O      0.440500000000     0.420700000000     0.730040000000    -0.447925   
O224     O      0.566340000000     0.482960000000     0.753570000000    -0.447331   
O225     O      0.562340000000     0.543920000000     0.764010000000    -0.447724   
O226     O      0.436970000000     0.481800000000     0.740300000000    -0.434431   
O227     O      0.482870000000     0.493570000000     0.797480000000    -0.450026   
O228     O      0.514370000000     0.531220000000     0.706920000000    -0.433838   
O229     O      0.182290000000     0.370280000000     0.848910000000    -0.431382   
O230     O      0.229250000000     0.368530000000     0.935240000000    -0.450228   
O231     O      0.240580000000     0.344360000000     0.873490000000    -0.447197   
O232     O      0.172210000000     0.393960000000     0.911050000000    -0.448657   
O233     O      0.113860000000     0.325820000000     0.919310000000    -0.44664    
O234     O      0.182030000000     0.276180000000     0.881220000000    -0.452413   
O235     O      0.172020000000     0.299600000000     0.943200000000    -0.449947   
O236     O      0.124800000000     0.301650000000     0.857150000000    -0.453567   
O237     O      0.389960000000     0.181910000000     0.888470000000    -0.432908   
O238     O      0.396560000000     0.230990000000     0.801800000000    -0.42788    
O239     O      0.363220000000     0.238040000000     0.861450000000    -0.427467   
O240     O      0.422280000000     0.176000000000     0.828950000000    -0.445861   
O241     O      0.355330000000     0.117530000000     0.816870000000    -0.435615   
O242     O      0.296360000000     0.179420000000     0.849290000000    -0.45661    
O243     O      0.328770000000     0.173450000000     0.789660000000    -0.450522   
O244     O      0.322020000000     0.124440000000     0.876380000000    -0.453341   
O245     O      0.023780000000     0.539500000000     0.936320000000    -0.447182   
O246     O      0.024310000000     0.492560000000     0.522580000000    -0.430445   
O247     O      0.055660000000     0.488780000000     0.961630000000    -0.426846   
O248     O      0.990710000000     0.543580000000     0.496990000000    -0.448407   
O249     O      0.925740000000     0.482350000000     0.485350000000    -0.435939   
O250     O      0.990480000000     0.427330000000     0.950900000000    -0.450001   
O251     O      0.957800000000     0.432310000000     0.511830000000    -0.445165   
O252     O      0.957820000000     0.478890000000     0.924950000000    -0.445039   
O253     O      0.708910000000     0.878590000000     0.607550000000    -0.446891   
O254     O      0.707140000000     0.841770000000     0.697920000000    -0.449462   
O255     O      0.728580000000     0.821510000000     0.638100000000    -0.453859   
O256     O      0.686830000000     0.899740000000     0.667550000000    -0.436354   
O257     O      0.615900000000     0.844930000000     0.661280000000    -0.450929   
O258     O      0.657600000000     0.766800000000     0.631110000000    -0.444255   
O259     O      0.635810000000     0.787730000000     0.691460000000    -0.429497   
O260     O      0.637270000000     0.824930000000     0.601230000000    -0.434092   
O261     O      0.861060000000     0.668420000000     0.614680000000    -0.451863   
O262     O      0.825080000000     0.675240000000     0.525740000000    -0.437154   
O263     O      0.812060000000     0.699840000000     0.586750000000    -0.435479   
O264     O      0.875910000000     0.643340000000     0.554380000000    -0.451793   
O265     O      0.813840000000     0.577110000000     0.560310000000    -0.446962   
O266     O      0.749470000000     0.634190000000     0.592940000000    -0.446742   
O267     O      0.763660000000     0.608500000000     0.531880000000    -0.456082   
O268     O      0.799540000000     0.601660000000     0.620650000000    -0.441401   
O269     O      0.577400000000     0.052540000000     0.768450000000    -0.434993   
O270     O      0.535720000000     0.059810000000     0.681930000000    -0.455679   
O271     O      0.525290000000     0.083810000000     0.743710000000    -0.446008   
O272     O      0.588000000000     0.027560000000     0.706430000000    -0.445013   
O273     O      0.525970000000     0.961530000000     0.713420000000    -0.457205   
O274     O      0.463840000000     0.017310000000     0.750560000000    -0.450873   
O275     O      0.474580000000     0.993010000000     0.688910000000    -0.453282   
O276     O      0.516730000000     0.985610000000     0.775590000000    -0.45514    
O277     O      0.321750000000     0.156470000000     0.540730000000    -0.449649   
O278     O      0.328780000000     0.191730000000     0.631880000000    -0.450769   
O279     O      0.354540000000     0.235620000000     0.572330000000    -0.450382   
O280     O      0.296570000000     0.113970000000     0.599960000000    -0.455278   
O281     O      0.363420000000     0.117860000000     0.604920000000    -0.443281   
O282     O      0.421780000000     0.240180000000     0.576680000000    -0.448764   
O283     O      0.396740000000     0.197810000000     0.636310000000    -0.447542   
O284     O      0.389420000000     0.161920000000     0.545360000000    -0.44915    
O285     O      0.514990000000     0.538050000000     0.545310000000    -0.446032   
O286     O      0.477090000000     0.489950000000     0.957550000000    -0.443162   
O287     O      0.464000000000     0.454900000000     0.520270000000    -0.433533   
O288     O      0.526880000000     0.571490000000     0.982790000000    -0.436306   
O289     O      0.589180000000     0.566850000000     0.977340000000    -0.444225   
O290     O      0.525570000000     0.448940000000     0.514990000000    -0.450129   
O291     O      0.538430000000     0.483290000000     0.952360000000    -0.44516    
O292     O      0.576100000000     0.530980000000     0.540130000000    -0.447767   
O293     O      0.167950000000     0.864520000000     0.703690000000    -0.449037   
O294     O      0.130350000000     0.822820000000     0.614870000000    -0.449057   
O295     O      0.113400000000     0.783690000000     0.675810000000    -0.431129   
O296     O      0.184020000000     0.902450000000     0.642580000000    -0.434505   
O297     O      0.243450000000     0.893090000000     0.636400000000    -0.448333   
O298     O      0.172790000000     0.774090000000     0.670510000000    -0.448963   
O299     O      0.188780000000     0.811520000000     0.609320000000    -0.438227   
O300     O      0.227240000000     0.854610000000     0.697810000000    -0.450448   
O301     O      0.964490000000     0.515170000000     0.764540000000    -0.452203   
O302     O      0.959340000000     0.476380000000     0.674610000000    -0.446724   
O303     O      0.933430000000     0.436490000000     0.735230000000    -0.451442   
O304     O      0.991910000000     0.557420000000     0.704440000000    -0.44498    
O305     O      0.058870000000     0.561830000000     0.710580000000    -0.449934   
O306     O      0.000590000000     0.441340000000     0.741440000000    -0.448553   
O307     O      0.027160000000     0.482580000000     0.680640000000    -0.446434   
O308     O      0.032420000000     0.521660000000     0.770890000000    -0.435644   
O309     O      0.780810000000     0.153200000000     0.779500000000    -0.44708    
O310     O      0.814690000000     0.190070000000     0.870010000000    -0.444624   
O311     O      0.828740000000     0.231330000000     0.810040000000    -0.432739   
O312     O      0.765770000000     0.109680000000     0.839080000000    -0.444441   
O313     O      0.828890000000     0.106510000000     0.832550000000    -0.449775   
O314     O      0.891410000000     0.227730000000     0.803120000000    -0.450873   
O315     O      0.876860000000     0.185180000000     0.863330000000    -0.446261   
O316     O      0.842670000000     0.147740000000     0.772780000000    -0.435835   
O317     O      0.642970000000     0.854770000000     0.939260000000    -0.446794   
O318     O      0.636690000000     0.801570000000     0.854270000000    -0.446983   
O319     O      0.618080000000     0.772360000000     0.917900000000    -0.454138   
O320     O      0.662310000000     0.885500000000     0.875550000000    -0.430384   
O321     O      0.732750000000     0.898980000000     0.882000000000    -0.452688   
O322     O      0.688440000000     0.785270000000     0.924200000000    -0.44503    
O323     O      0.707850000000     0.816560000000     0.860240000000    -0.446546   
O324     O      0.713830000000     0.869070000000     0.945650000000    -0.445366   
O325     O      0.649630000000     0.948180000000     0.858810000000    -0.269172   
O326     O      0.823470000000     0.296370000000     0.791120000000    -0.267741   
O327     O      0.036970000000     0.718130000000     0.687250000000    -0.265655   
O328     O      0.514850000000     0.622430000000     0.947670000000    -0.267993   
O329     O      0.179940000000     0.962060000000     0.612300000000    -0.267764   
O330     O      0.390510000000     0.387790000000     0.035330000000    -0.267965   
O331     O      0.592180000000     0.739690000000     0.740960000000    -0.265506   
O332     O      0.597720000000     0.848920000000     0.555750000000    -0.271004   
O333     O      0.825260000000     0.758730000000     0.627240000000    -0.268562   
O334     O      0.700570000000     0.978100000000     0.675820000000    -0.274493   
O335     O      0.074490000000     0.584780000000     0.818960000000    -0.274547   
O336     O      0.071160000000     0.471260000000     0.562270000000    -0.269238   
O337     O      0.855010000000     0.470900000000     0.511890000000    -0.26933    
O338     O      0.433420000000     0.155480000000     0.926790000000    -0.270677   
O339     O      0.446690000000     0.265630000000     0.750980000000    -0.267342   
O340     O      0.349490000000     0.044180000000     0.803290000000    -0.270946   
O341     O      0.126310000000     0.500630000000     0.935150000000    -0.266483   
O342     O      0.366880000000     0.311910000000     0.869490000000    -0.26576    
O343     O      0.516760000000     0.411080000000     0.839220000000    -0.268744   
O344     O      0.494170000000     0.563040000000     0.656920000000    -0.271225   
O345     O      0.932310000000     0.193710000000     0.981550000000    -0.269457   
O346     O      0.821600000000     0.084750000000     0.725460000000    -0.27479    
O347     O      0.164530000000     0.415730000000     0.807330000000    -0.270524   
O348     O      0.261990000000     0.413230000000     0.552650000000    -0.272226   
O349     O      0.951750000000     0.167060000000     0.619930000000    -0.26762    
O350     O      0.371130000000     0.488330000000     0.724130000000    -0.267739   
O351     O      0.614950000000     0.096600000000     0.819960000000    -0.267541   
O352     O      0.411200000000     0.990310000000     0.617620000000    -0.278604   
O353     O      0.645550000000     0.158450000000     0.486650000000    -0.268367   
O354     O      0.249270000000     0.945980000000     0.804940000000    -0.272316   
O355     O      0.167720000000     0.746130000000     0.566560000000    -0.271587   
O356     O      0.281180000000     0.968970000000     0.941450000000    -0.267455   
O357     O      0.812880000000     0.722950000000     0.981270000000    -0.270278   
O358     O      0.820110000000     0.555850000000     0.663530000000    -0.273181   
O359     O      0.707120000000     0.649120000000     0.816990000000    -0.267673   
O360     O      0.976400000000     0.765210000000     0.813080000000    -0.274145   


