data_structure

_audit_creation_method RASPA-1.0
_audit_creation_date 2023-5-19
_audit_author_name 'Poobodin Mano'

_cell_length_a    41.5537
_cell_length_b    39.745
_cell_length_c    41.7185
_cell_angle_alpha 90
_cell_angle_beta  90
_cell_angle_gamma 90
_cell_volume      68900.3

_symmetry_cell_setting          triclinic
_symmetry_space_group_name_Hall 'P 1'
_symmetry_space_group_name_H-M  'P 1'
_symmetry_Int_Tables_number     1

_symmetry_equiv_pos_as_xyz 'x,y,z'

loop_
_atom_site_label
_atom_site_type_symbol
_atom_site_fract_x
_atom_site_fract_y
_atom_site_fract_z
_atom_site_charge
C1       C      0.494680000000     0.089730000000     0.241290000000     0.432413   
C2       C      0.012250000000     0.472340000000     0.286860000000     0.434364   
C3       C      0.443050000000     0.026520000000     0.273800000000     0.434368   
C4       C      0.063380000000     0.037600000000     0.253660000000     0.434326   
C5       C      0.508080000000     0.297950000000     0.180700000000     0.426637   
C6       C      0.492110000000     0.272560000000     0.299760000000     0.430155   
C7       C      0.993660000000     0.223540000000     0.226050000000     0.427725   
C8       C      0.006240000000     0.347800000000     0.254920000000     0.425946   
C9       C      0.251140000000     0.532310000000     0.325540000000     0.435407   
C10      C      0.251270000000     0.527100000000     0.203900000000     0.433125   
C11      C      0.190340000000     0.028790000000     0.266100000000     0.42975    
C12      C      0.312790000000     0.030710000000     0.263830000000     0.430017   
C13      C      0.266390000000     0.013440000000     0.449380000000     0.431537   
C14      C      0.256800000000     0.518440000000     0.070650000000     0.431262   
C15      C      0.260190000000     0.080330000000     0.508750000000     0.429619   
C16      C      0.262390000000     0.452170000000     0.510540000000     0.429168   
C17      C      0.008460000000     0.287420000000     0.049840000000     0.43096    
C18      C      0.505950000000     0.284150000000     0.427420000000     0.424848   
C19      C      0.067590000000     0.296290000000     0.987410000000     0.433175   
C20      C      0.446540000000     0.274980000000     0.990020000000     0.429502   
C21      C      0.194840000000     0.276110000000     0.001480000000     0.425092   
C22      C      0.316720000000     0.258960000000     0.005040000000     0.424634   
C23      C      0.246790000000     0.208140000000     0.523950000000     0.435056   
C24      C      0.264070000000     0.326990000000     0.482640000000     0.436746   
C25      C      0.368980000000     0.272380000000     0.030270000000    -0.0117251  
C26      C      0.366590000000     0.232080000000     0.484140000000    -0.0234257  
C27      C      0.395560000000     0.292110000000     0.013460000000    -0.0102254  
C28      C      0.395790000000     0.249630000000     0.468690000000     0.0340602  
C29      C      0.142750000000     0.260090000000     0.477650000000    -0.0113634  
C30      C      0.144730000000     0.300760000000     0.024020000000    -0.0234337  
C31      C      0.118270000000     0.282500000000     0.461000000000    -0.00637758 
C32      C      0.118820000000     0.322620000000     0.007390000000     0.0322693  
C33      C      0.292880000000     0.398410000000     0.008750000000    -0.0127098  
C34      C      0.232770000000     0.398940000000     0.501530000000    -0.023971   
C35      C      0.296150000000     0.377530000000     0.977930000000    -0.00670631 
C36      C      0.236820000000     0.379850000000     0.469810000000     0.0352374  
C37      C      0.283800000000     0.134950000000     0.525440000000    -0.0117892  
C38      C      0.231300000000     0.132700000000     0.495030000000    -0.0242639  
C39      C      0.267950000000     0.158490000000     0.050250000000    -0.0114468  
C40      C      0.216030000000     0.154980000000     0.020650000000     0.0382353  
C41      C      0.292000000000     0.530450000000     0.398590000000    -0.0121374  
C42      C      0.245230000000     0.490210000000     0.398940000000    -0.0219177  
C43      C      0.273250000000     0.053810000000     0.375860000000    -0.00946948 
C44      C      0.226390000000     0.013850000000     0.377270000000     0.037088   
C45      C      0.280120000000     0.505010000000     0.122880000000    -0.0102808  
C46      C      0.227150000000     0.037080000000     0.118570000000    -0.023117   
C47      C      0.267220000000     0.495900000000     0.155990000000    -0.0074118  
C48      C      0.236920000000     0.051560000000     0.151430000000     0.0391302  
C49      C      0.987580000000     0.308360000000     0.375880000000    -0.0122095  
C50      C      0.025140000000     0.258390000000     0.376920000000    -0.0244719  
C51      C      0.467200000000     0.290500000000     0.350220000000    -0.00994079 
C52      C      0.504790000000     0.241490000000     0.350920000000     0.037126   
C53      C      0.989240000000     0.322040000000     0.129180000000    -0.0100628  
C54      C      0.041370000000     0.290520000000     0.131980000000    -0.0237134  
C55      C      0.480130000000     0.302860000000     0.098740000000    -0.00994662 
C56      C      0.531960000000     0.269600000000     0.102350000000     0.0361497  
C57      C      0.138650000000     0.500660000000     0.254100000000    -0.0113416  
C58      C      0.139950000000     0.556150000000     0.283440000000    -0.0241813  
C59      C      0.113320000000     0.515070000000     0.231040000000    -0.010869   
C60      C      0.115040000000     0.070000000000     0.260140000000     0.0375142  
C61      C      0.363710000000     0.503130000000     0.248670000000    -0.0100894  
C62      C      0.363490000000     0.061730000000     0.271700000000    -0.023075   
C63      C      0.392980000000     0.494500000000     0.269140000000    -0.00885436 
C64      C      0.391680000000     0.052340000000     0.293750000000     0.0355967  
C65      C      0.040250000000     0.398260000000     0.264560000000    -0.0123589  
C66      C      0.479690000000     0.400200000000     0.272490000000    -0.0244409  
C67      C      0.044070000000     0.421540000000     0.293850000000    -0.00835582 
C68      C      0.485290000000     0.420310000000     0.303300000000     0.0368012  
C69      C      0.459710000000     0.172720000000     0.219210000000    -0.0101096  
C70      C      0.017330000000     0.171670000000     0.203110000000    -0.0212565  
C71      C      0.464480000000     0.141210000000     0.239700000000    -0.0108155  
C72      C      0.022880000000     0.138950000000     0.221780000000     0.0306408  
C73      C      0.494680000000     0.089730000000     0.741290000000     0.432365   
C74      C      0.012250000000     0.472340000000     0.786860000000     0.434341   
C75      C      0.443050000000     0.026520000000     0.773800000000     0.43434    
C76      C      0.063380000000     0.037600000000     0.753660000000     0.434288   
C77      C      0.508080000000     0.297950000000     0.680700000000     0.426638   
C78      C      0.492110000000     0.272560000000     0.799760000000     0.430152   
C79      C      0.993660000000     0.223540000000     0.726050000000     0.427725   
C80      C      0.006240000000     0.347800000000     0.754920000000     0.425945   
C81      C      0.251140000000     0.532310000000     0.825550000000     0.435326   
C82      C      0.251270000000     0.527100000000     0.703900000000     0.433123   
C83      C      0.190340000000     0.028790000000     0.766100000000     0.429723   
C84      C      0.312790000000     0.030710000000     0.763820000000     0.430015   
C85      C      0.266390000000     0.013440000000     0.949380000000     0.43137    
C86      C      0.256800000000     0.518440000000     0.570650000000     0.431336   
C87      C      0.260190000000     0.080330000000     0.008750000000     0.429469   
C88      C      0.262390000000     0.452170000000     0.010540000000     0.428907   
C89      C      0.008460000000     0.287420000000     0.549840000000     0.430761   
C90      C      0.505950000000     0.284150000000     0.927420000000     0.42486    
C91      C      0.067590000000     0.296290000000     0.487410000000     0.432958   
C92      C      0.446540000000     0.274980000000     0.490020000000     0.42937    
C93      C      0.194840000000     0.276110000000     0.501480000000     0.426531   
C94      C      0.316720000000     0.258960000000     0.505040000000     0.426088   
C95      C      0.246790000000     0.208140000000     0.023950000000     0.433659   
C96      C      0.264070000000     0.326990000000     0.982650000000     0.438265   
C97      C      0.368980000000     0.272380000000     0.530270000000    -0.0121766  
C98      C      0.366590000000     0.232080000000     0.984140000000    -0.0226045  
C99      C      0.395560000000     0.292110000000     0.513460000000    -0.00786907 
C100     C      0.395790000000     0.249630000000     0.968700000000     0.033923   
C101     C      0.142750000000     0.260090000000     0.977650000000    -0.0104719  
C102     C      0.144730000000     0.300760000000     0.524020000000    -0.0237569  
C103     C      0.118270000000     0.282500000000     0.961000000000    -0.00660856 
C104     C      0.118820000000     0.322620000000     0.507390000000     0.03429    
C105     C      0.292880000000     0.398410000000     0.508750000000    -0.0115033  
C106     C      0.232770000000     0.398940000000     0.001530000000    -0.0251305  
C107     C      0.296150000000     0.377530000000     0.477930000000    -0.00797376 
C108     C      0.236820000000     0.379850000000     0.969810000000     0.0362906  
C109     C      0.283800000000     0.134950000000     0.025440000000    -0.0117044  
C110     C      0.231300000000     0.132700000000     0.995030000000    -0.022231   
C111     C      0.267950000000     0.158490000000     0.550250000000    -0.0112467  
C112     C      0.216030000000     0.154980000000     0.520650000000     0.0393805  
C113     C      0.292000000000     0.530450000000     0.898590000000    -0.0121695  
C114     C      0.245230000000     0.490210000000     0.898940000000    -0.0218999  
C115     C      0.273250000000     0.053810000000     0.875860000000    -0.00944633 
C116     C      0.226390000000     0.013850000000     0.877270000000     0.0370808  
C117     C      0.280120000000     0.505010000000     0.622880000000    -0.0102835  
C118     C      0.227150000000     0.037080000000     0.618570000000    -0.0231192  
C119     C      0.267220000000     0.495900000000     0.655990000000    -0.00741292 
C120     C      0.236920000000     0.051560000000     0.651430000000     0.0391231  
C121     C      0.987580000000     0.308360000000     0.875880000000    -0.0122145  
C122     C      0.025140000000     0.258390000000     0.876920000000    -0.024478   
C123     C      0.467200000000     0.290500000000     0.850220000000    -0.00994173 
C124     C      0.504790000000     0.241490000000     0.850920000000     0.0371203  
C125     C      0.989240000000     0.322040000000     0.629180000000    -0.0100591  
C126     C      0.041370000000     0.290520000000     0.631980000000    -0.0237203  
C127     C      0.480130000000     0.302860000000     0.598740000000    -0.00995934 
C128     C      0.531960000000     0.269600000000     0.602350000000     0.0361283  
C129     C      0.138650000000     0.500660000000     0.754100000000    -0.0113449  
C130     C      0.139950000000     0.556150000000     0.783440000000    -0.0241902  
C131     C      0.113320000000     0.515070000000     0.731040000000    -0.0108731  
C132     C      0.115040000000     0.070000000000     0.760140000000     0.0375109  
C133     C      0.363710000000     0.503130000000     0.748670000000    -0.010097   
C134     C      0.363490000000     0.061730000000     0.771700000000    -0.0230683  
C135     C      0.392980000000     0.494500000000     0.769140000000    -0.00885442 
C136     C      0.391680000000     0.052340000000     0.793750000000     0.0355865  
C137     C      0.040250000000     0.398260000000     0.764560000000    -0.0123531  
C138     C      0.479690000000     0.400200000000     0.772490000000    -0.0244416  
C139     C      0.044070000000     0.421540000000     0.793850000000    -0.00838864 
C140     C      0.485290000000     0.420310000000     0.803300000000     0.0367933  
C141     C      0.459710000000     0.172720000000     0.719210000000    -0.0101036  
C142     C      0.017330000000     0.171670000000     0.703110000000    -0.0212601  
C143     C      0.464480000000     0.141210000000     0.739710000000    -0.0108778  
C144     C      0.022880000000     0.138950000000     0.721780000000     0.0306329  
C145     C      0.494680000000     0.589730000000     0.241290000000     0.432414   
C146     C      0.012250000000     0.972340000000     0.286860000000     0.434362   
C147     C      0.443050000000     0.526520000000     0.273800000000     0.434369   
C148     C      0.063380000000     0.537600000000     0.253660000000     0.434327   
C149     C      0.508080000000     0.797950000000     0.180700000000     0.426635   
C150     C      0.492110000000     0.772560000000     0.299760000000     0.430123   
C151     C      0.993660000000     0.723540000000     0.226050000000     0.427723   
C152     C      0.006240000000     0.847800000000     0.254920000000     0.425943   
C153     C      0.251140000000     0.032310000000     0.325540000000     0.435408   
C154     C      0.251270000000     0.027100000000     0.203900000000     0.43312    
C155     C      0.190340000000     0.528790000000     0.266100000000     0.429751   
C156     C      0.312790000000     0.530710000000     0.263830000000     0.430016   
C157     C      0.266390000000     0.513440000000     0.449380000000     0.431534   
C158     C      0.256800000000     0.018440000000     0.070650000000     0.431256   
C159     C      0.260190000000     0.580330000000     0.508750000000     0.429588   
C160     C      0.262390000000     0.952170000000     0.510540000000     0.429135   
C161     C      0.008460000000     0.787420000000     0.049840000000     0.430961   
C162     C      0.505950000000     0.784150000000     0.427420000000     0.424849   
C163     C      0.067590000000     0.796290000000     0.987410000000     0.433176   
C164     C      0.446540000000     0.774970000000     0.990020000000     0.429487   
C165     C      0.194840000000     0.776110000000     0.001480000000     0.425084   
C166     C      0.316720000000     0.758960000000     0.005040000000     0.424637   
C167     C      0.246790000000     0.708140000000     0.523950000000     0.434973   
C168     C      0.264070000000     0.826990000000     0.482640000000     0.436895   
C169     C      0.368980000000     0.772380000000     0.030270000000    -0.0117087  
C170     C      0.366590000000     0.732080000000     0.484140000000    -0.0234287  
C171     C      0.395560000000     0.792110000000     0.013460000000    -0.0102198  
C172     C      0.395790000000     0.749640000000     0.468690000000     0.03408    
C173     C      0.142750000000     0.760090000000     0.477650000000    -0.0114242  
C174     C      0.144730000000     0.800760000000     0.024020000000    -0.0233695  
C175     C      0.118270000000     0.782510000000     0.461000000000    -0.00632168 
C176     C      0.118820000000     0.822620000000     0.007390000000     0.0322582  
C177     C      0.292880000000     0.898410000000     0.008750000000    -0.0127021  
C178     C      0.232770000000     0.898930000000     0.501530000000    -0.0240111  
C179     C      0.296150000000     0.877540000000     0.977930000000    -0.00672737 
C180     C      0.236820000000     0.879850000000     0.469810000000     0.0352612  
C181     C      0.283800000000     0.634950000000     0.525440000000    -0.0117946  
C182     C      0.231300000000     0.632700000000     0.495030000000    -0.0242671  
C183     C      0.267950000000     0.658490000000     0.050250000000    -0.0114405  
C184     C      0.216030000000     0.654980000000     0.020650000000     0.0382401  
C185     C      0.292000000000     0.030450000000     0.398590000000    -0.0121365  
C186     C      0.245230000000     0.990210000000     0.398940000000    -0.0219021  
C187     C      0.273250000000     0.553810000000     0.375860000000    -0.00946826 
C188     C      0.226390000000     0.513850000000     0.377270000000     0.0371033  
C189     C      0.280120000000     0.005010000000     0.122880000000    -0.0103036  
C190     C      0.227150000000     0.537080000000     0.118570000000    -0.0230874  
C191     C      0.267220000000     0.995900000000     0.155990000000    -0.00739256 
C192     C      0.236920000000     0.551570000000     0.151430000000     0.0390781  
C193     C      0.987580000000     0.808360000000     0.375880000000    -0.0121775  
C194     C      0.025140000000     0.758390000000     0.376920000000    -0.0244704  
C195     C      0.467200000000     0.790500000000     0.350220000000    -0.00995361 
C196     C      0.504790000000     0.741490000000     0.350920000000     0.0371257  
C197     C      0.989240000000     0.822040000000     0.129180000000    -0.0100757  
C198     C      0.041370000000     0.790520000000     0.131980000000    -0.0237147  
C199     C      0.480130000000     0.802850000000     0.098740000000    -0.00992087 
C200     C      0.531960000000     0.769600000000     0.102350000000     0.0361505  
C201     C      0.138650000000     0.000660000000     0.254100000000    -0.0113607  
C202     C      0.139950000000     0.056160000000     0.283440000000    -0.0242654  
C203     C      0.113320000000     0.015070000000     0.231040000000    -0.0108712  
C204     C      0.115040000000     0.570000000000     0.260140000000     0.0374805  
C205     C      0.363710000000     0.003130000000     0.248670000000    -0.0101081  
C206     C      0.363490000000     0.561730000000     0.271700000000    -0.023074   
C207     C      0.392980000000     0.994500000000     0.269140000000    -0.00883763 
C208     C      0.391680000000     0.552340000000     0.293750000000     0.0355962  
C209     C      0.040250000000     0.898260000000     0.264560000000    -0.0123385  
C210     C      0.479690000000     0.900200000000     0.272490000000    -0.0244411  
C211     C      0.044070000000     0.921540000000     0.293850000000    -0.00836512 
C212     C      0.485290000000     0.920310000000     0.303300000000     0.0368005  
C213     C      0.459710000000     0.672720000000     0.219210000000    -0.0101074  
C214     C      0.017330000000     0.671670000000     0.203110000000    -0.021256   
C215     C      0.464480000000     0.641210000000     0.239700000000    -0.0108139  
C216     C      0.022880000000     0.638960000000     0.221780000000     0.0306226  
C217     C      0.494680000000     0.589730000000     0.741290000000     0.432366   
C218     C      0.012250000000     0.972340000000     0.786860000000     0.43434    
C219     C      0.443050000000     0.526520000000     0.773800000000     0.434341   
C220     C      0.063380000000     0.537600000000     0.753660000000     0.434288   
C221     C      0.508080000000     0.797950000000     0.680700000000     0.426636   
C222     C      0.492110000000     0.772560000000     0.799760000000     0.43012    
C223     C      0.993660000000     0.723540000000     0.726050000000     0.427724   
C224     C      0.006240000000     0.847800000000     0.754920000000     0.425943   
C225     C      0.251140000000     0.032310000000     0.825550000000     0.435326   
C226     C      0.251270000000     0.027100000000     0.703900000000     0.433118   
C227     C      0.190340000000     0.528790000000     0.766100000000     0.429725   
C228     C      0.312790000000     0.530710000000     0.763820000000     0.430015   
C229     C      0.266390000000     0.513440000000     0.949380000000     0.431366   
C230     C      0.256800000000     0.018440000000     0.570650000000     0.43133    
C231     C      0.260190000000     0.580330000000     0.008750000000     0.429438   
C232     C      0.262390000000     0.952170000000     0.010540000000     0.428875   
C233     C      0.008460000000     0.787420000000     0.549840000000     0.430762   
C234     C      0.505950000000     0.784150000000     0.927420000000     0.424861   
C235     C      0.067590000000     0.796290000000     0.487410000000     0.432959   
C236     C      0.446540000000     0.774970000000     0.490020000000     0.429355   
C237     C      0.194840000000     0.776110000000     0.501480000000     0.426522   
C238     C      0.316720000000     0.758960000000     0.505040000000     0.42609    
C239     C      0.246790000000     0.708140000000     0.023950000000     0.433578   
C240     C      0.264070000000     0.826990000000     0.982650000000     0.438413   
C241     C      0.368980000000     0.772380000000     0.530270000000    -0.0121598  
C242     C      0.366590000000     0.732080000000     0.984140000000    -0.0226079  
C243     C      0.395560000000     0.792110000000     0.513460000000    -0.00786465 
C244     C      0.395790000000     0.749640000000     0.968700000000     0.0339429  
C245     C      0.142750000000     0.760090000000     0.977650000000    -0.0105334  
C246     C      0.144730000000     0.800760000000     0.524020000000    -0.0236926  
C247     C      0.118270000000     0.782510000000     0.961000000000    -0.00655243 
C248     C      0.118820000000     0.822620000000     0.507390000000     0.0342779  
C249     C      0.292880000000     0.898410000000     0.508750000000    -0.0114958  
C250     C      0.232770000000     0.898930000000     0.001530000000    -0.0251703  
C251     C      0.296150000000     0.877540000000     0.477930000000    -0.00799462 
C252     C      0.236820000000     0.879850000000     0.969810000000     0.036314   
C253     C      0.283800000000     0.634950000000     0.025440000000    -0.0117098  
C254     C      0.231300000000     0.632700000000     0.995030000000    -0.022235   
C255     C      0.267950000000     0.658490000000     0.550250000000    -0.0112405  
C256     C      0.216030000000     0.654980000000     0.520650000000     0.0393848  
C257     C      0.292000000000     0.030450000000     0.898590000000    -0.0121686  
C258     C      0.245230000000     0.990210000000     0.898940000000    -0.0218859  
C259     C      0.273250000000     0.553810000000     0.875860000000    -0.0094452  
C260     C      0.226390000000     0.513850000000     0.877270000000     0.0370947  
C261     C      0.280120000000     0.005010000000     0.622880000000    -0.0103049  
C262     C      0.227150000000     0.537080000000     0.618570000000    -0.0230897  
C263     C      0.267220000000     0.995900000000     0.655990000000    -0.00739501 
C264     C      0.236920000000     0.551570000000     0.651430000000     0.0390711  
C265     C      0.987580000000     0.808360000000     0.875880000000    -0.0121825  
C266     C      0.025140000000     0.758390000000     0.876920000000    -0.0244765  
C267     C      0.467200000000     0.790500000000     0.850220000000    -0.00995455 
C268     C      0.504790000000     0.741490000000     0.850920000000     0.0371199  
C269     C      0.989240000000     0.822040000000     0.629180000000    -0.0100719  
C270     C      0.041370000000     0.790520000000     0.631980000000    -0.0237216  
C271     C      0.480130000000     0.802850000000     0.598740000000    -0.00993357 
C272     C      0.531960000000     0.769600000000     0.602350000000     0.0361291  
C273     C      0.138650000000     0.000660000000     0.754100000000    -0.0113626  
C274     C      0.139950000000     0.056160000000     0.783440000000    -0.0242742  
C275     C      0.113320000000     0.015070000000     0.731040000000    -0.0108749  
C276     C      0.115040000000     0.570000000000     0.760140000000     0.0374771  
C277     C      0.363710000000     0.003130000000     0.748670000000    -0.0101141  
C278     C      0.363490000000     0.561730000000     0.771700000000    -0.0230674  
C279     C      0.392980000000     0.994500000000     0.769140000000    -0.00883907 
C280     C      0.391680000000     0.552340000000     0.793750000000     0.035586   
C281     C      0.040250000000     0.898260000000     0.764560000000    -0.0123326  
C282     C      0.479690000000     0.900200000000     0.772490000000    -0.0244418  
C283     C      0.044070000000     0.921540000000     0.793850000000    -0.00839793 
C284     C      0.485290000000     0.920310000000     0.803300000000     0.0367926  
C285     C      0.459710000000     0.672720000000     0.719210000000    -0.0101014  
C286     C      0.017330000000     0.671670000000     0.703110000000    -0.0212596  
C287     C      0.464480000000     0.641210000000     0.739710000000    -0.0108762  
C288     C      0.022880000000     0.638960000000     0.721780000000     0.0306147  
C289     C      0.994670000000     0.089730000000     0.241290000000     0.432373   
C290     C      0.512250000000     0.472340000000     0.286860000000     0.434389   
C291     C      0.943050000000     0.026520000000     0.273800000000     0.434334   
C292     C      0.563380000000     0.037600000000     0.253660000000     0.434341   
C293     C      0.008080000000     0.297950000000     0.180700000000     0.426501   
C294     C      0.992110000000     0.272560000000     0.299760000000     0.430297   
C295     C      0.493660000000     0.223540000000     0.226050000000     0.427577   
C296     C      0.506240000000     0.347800000000     0.254920000000     0.426091   
C297     C      0.751140000000     0.532310000000     0.325540000000     0.435397   
C298     C      0.751270000000     0.527100000000     0.203900000000     0.433118   
C299     C      0.690340000000     0.028790000000     0.266100000000     0.429808   
C300     C      0.812790000000     0.030710000000     0.263830000000     0.430008   
C301     C      0.766390000000     0.013440000000     0.449380000000     0.431538   
C302     C      0.756800000000     0.518440000000     0.070650000000     0.43127    
C303     C      0.760190000000     0.080330000000     0.508750000000     0.429618   
C304     C      0.762390000000     0.452170000000     0.510540000000     0.429167   
C305     C      0.508460000000     0.287420000000     0.049840000000     0.430979   
C306     C      0.005950000000     0.284150000000     0.427420000000     0.424833   
C307     C      0.567590000000     0.296290000000     0.987410000000     0.433064   
C308     C      0.946540000000     0.274980000000     0.990020000000     0.429483   
C309     C      0.694840000000     0.276110000000     0.001480000000     0.425091   
C310     C      0.816720000000     0.258960000000     0.005040000000     0.424634   
C311     C      0.746790000000     0.208140000000     0.523950000000     0.435055   
C312     C      0.764070000000     0.326990000000     0.482640000000     0.436745   
C313     C      0.868980000000     0.272380000000     0.030270000000    -0.0117158  
C314     C      0.866590000000     0.232080000000     0.484140000000    -0.0234248  
C315     C      0.895560000000     0.292110000000     0.013460000000    -0.0102474  
C316     C      0.895790000000     0.249630000000     0.468690000000     0.0340566  
C317     C      0.642750000000     0.260090000000     0.477650000000    -0.0113653  
C318     C      0.644730000000     0.300760000000     0.024020000000    -0.0234344  
C319     C      0.618270000000     0.282500000000     0.461000000000    -0.00637259 
C320     C      0.618820000000     0.322620000000     0.007390000000     0.0322712  
C321     C      0.792880000000     0.398410000000     0.008750000000    -0.0127108  
C322     C      0.732770000000     0.398940000000     0.501530000000    -0.0239715  
C323     C      0.796150000000     0.377530000000     0.977930000000    -0.00670638 
C324     C      0.736820000000     0.379850000000     0.469810000000     0.035237   
C325     C      0.783800000000     0.134950000000     0.525440000000    -0.01179    
C326     C      0.731300000000     0.132700000000     0.495030000000    -0.0242645  
C327     C      0.767950000000     0.158490000000     0.050250000000    -0.011447   
C328     C      0.716030000000     0.154980000000     0.020650000000     0.0382357  
C329     C      0.792000000000     0.530450000000     0.398590000000    -0.012136   
C330     C      0.745240000000     0.490210000000     0.398940000000    -0.0218486  
C331     C      0.773250000000     0.053810000000     0.375860000000    -0.00947255 
C332     C      0.726390000000     0.013850000000     0.377270000000     0.037058   
C333     C      0.780120000000     0.505010000000     0.122880000000    -0.0102243  
C334     C      0.727150000000     0.037080000000     0.118570000000    -0.0231728  
C335     C      0.767220000000     0.495900000000     0.155990000000    -0.00743204 
C336     C      0.736920000000     0.051560000000     0.151430000000     0.0391539  
C337     C      0.487580000000     0.308360000000     0.375880000000    -0.0124446  
C338     C      0.525140000000     0.258390000000     0.376920000000    -0.0245158  
C339     C      0.967200000000     0.290500000000     0.350220000000    -0.00997959 
C340     C      0.004800000000     0.241490000000     0.350920000000     0.0369122  
C341     C      0.489240000000     0.322040000000     0.129180000000    -0.0102739  
C342     C      0.541370000000     0.290520000000     0.131980000000    -0.023704   
C343     C      0.980130000000     0.302860000000     0.098740000000    -0.00990907 
C344     C      0.031960000000     0.269600000000     0.102350000000     0.036151   
C345     C      0.638650000000     0.500660000000     0.254100000000    -0.0113409  
C346     C      0.639950000000     0.556150000000     0.283440000000    -0.0241755  
C347     C      0.613320000000     0.515070000000     0.231040000000    -0.010869   
C348     C      0.615040000000     0.070000000000     0.260140000000     0.0375117  
C349     C      0.863710000000     0.503130000000     0.248670000000    -0.0100732  
C350     C      0.863490000000     0.061730000000     0.271700000000    -0.0230751  
C351     C      0.892970000000     0.494500000000     0.269140000000    -0.00886579 
C352     C      0.891680000000     0.052340000000     0.293750000000     0.0355937  
C353     C      0.540250000000     0.398260000000     0.264560000000    -0.0123437  
C354     C      0.979690000000     0.400200000000     0.272490000000    -0.024439   
C355     C      0.544070000000     0.421540000000     0.293850000000    -0.008353   
C356     C      0.985300000000     0.420310000000     0.303300000000     0.0369353  
C357     C      0.959710000000     0.172720000000     0.219210000000    -0.0101027  
C358     C      0.517330000000     0.171670000000     0.203110000000    -0.0211828  
C359     C      0.964480000000     0.141210000000     0.239700000000    -0.0107934  
C360     C      0.522880000000     0.138950000000     0.221780000000     0.0306856  
C361     C      0.994670000000     0.089730000000     0.741290000000     0.432325   
C362     C      0.512250000000     0.472340000000     0.786860000000     0.434367   
C363     C      0.943050000000     0.026520000000     0.773800000000     0.434306   
C364     C      0.563380000000     0.037600000000     0.753660000000     0.434303   
C365     C      0.008080000000     0.297950000000     0.680700000000     0.426502   
C366     C      0.992110000000     0.272560000000     0.799760000000     0.430294   
C367     C      0.493660000000     0.223540000000     0.726050000000     0.427577   
C368     C      0.506240000000     0.347800000000     0.754920000000     0.426091   
C369     C      0.751140000000     0.532310000000     0.825550000000     0.435316   
C370     C      0.751270000000     0.527100000000     0.703900000000     0.433116   
C371     C      0.690340000000     0.028790000000     0.766100000000     0.429782   
C372     C      0.812790000000     0.030710000000     0.763820000000     0.430006   
C373     C      0.766390000000     0.013440000000     0.949380000000     0.43137    
C374     C      0.756800000000     0.518440000000     0.570650000000     0.431344   
C375     C      0.760190000000     0.080330000000     0.008750000000     0.429468   
C376     C      0.762390000000     0.452170000000     0.010540000000     0.428906   
C377     C      0.508460000000     0.287420000000     0.549840000000     0.43078    
C378     C      0.005950000000     0.284150000000     0.927420000000     0.424845   
C379     C      0.567590000000     0.296290000000     0.487410000000     0.432846   
C380     C      0.946540000000     0.274980000000     0.490020000000     0.429351   
C381     C      0.694840000000     0.276110000000     0.501480000000     0.42653    
C382     C      0.816720000000     0.258960000000     0.505040000000     0.426089   
C383     C      0.746790000000     0.208140000000     0.023950000000     0.433658   
C384     C      0.764070000000     0.326990000000     0.982650000000     0.438265   
C385     C      0.868980000000     0.272380000000     0.530270000000    -0.0121677  
C386     C      0.866590000000     0.232080000000     0.984140000000    -0.0226034  
C387     C      0.895560000000     0.292110000000     0.513460000000    -0.00788969 
C388     C      0.895790000000     0.249630000000     0.968700000000     0.0339193  
C389     C      0.642750000000     0.260090000000     0.977650000000    -0.0104736  
C390     C      0.644730000000     0.300760000000     0.524020000000    -0.0237578  
C391     C      0.618270000000     0.282500000000     0.961000000000    -0.00660392 
C392     C      0.618820000000     0.322620000000     0.507390000000     0.0342927  
C393     C      0.792880000000     0.398410000000     0.508750000000    -0.011504   
C394     C      0.732770000000     0.398940000000     0.001530000000    -0.0251312  
C395     C      0.796150000000     0.377530000000     0.477930000000    -0.0079741  
C396     C      0.736820000000     0.379850000000     0.969810000000     0.0362904  
C397     C      0.783800000000     0.134950000000     0.025440000000    -0.0117051  
C398     C      0.731300000000     0.132700000000     0.995030000000    -0.0222313  
C399     C      0.767950000000     0.158490000000     0.550250000000    -0.0112468  
C400     C      0.716030000000     0.154980000000     0.520650000000     0.0393811  
C401     C      0.792000000000     0.530450000000     0.898590000000    -0.0121681  
C402     C      0.745240000000     0.490210000000     0.898940000000    -0.0218308  
C403     C      0.773250000000     0.053810000000     0.875860000000    -0.00944939 
C404     C      0.726390000000     0.013850000000     0.877270000000     0.0370508  
C405     C      0.780120000000     0.505010000000     0.622880000000    -0.0102271  
C406     C      0.727150000000     0.037080000000     0.618570000000    -0.023175   
C407     C      0.767220000000     0.495900000000     0.655990000000    -0.00743316 
C408     C      0.736920000000     0.051560000000     0.651430000000     0.0391468  
C409     C      0.487580000000     0.308360000000     0.875880000000    -0.0124498  
C410     C      0.525140000000     0.258390000000     0.876920000000    -0.0245219  
C411     C      0.967200000000     0.290500000000     0.850220000000    -0.00998057 
C412     C      0.004800000000     0.241490000000     0.850920000000     0.0369062  
C413     C      0.489240000000     0.322040000000     0.629180000000    -0.0102712  
C414     C      0.541370000000     0.290520000000     0.631980000000    -0.0237109  
C415     C      0.980130000000     0.302860000000     0.598740000000    -0.00992149 
C416     C      0.031960000000     0.269600000000     0.602350000000     0.0361296  
C417     C      0.638650000000     0.500660000000     0.754100000000    -0.0113441  
C418     C      0.639950000000     0.556150000000     0.783440000000    -0.0241844  
C419     C      0.613320000000     0.515070000000     0.731040000000    -0.010873   
C420     C      0.615040000000     0.070000000000     0.760140000000     0.0375084  
C421     C      0.863710000000     0.503130000000     0.748670000000    -0.0100808  
C422     C      0.863490000000     0.061730000000     0.771700000000    -0.0230684  
C423     C      0.892970000000     0.494500000000     0.769140000000    -0.00886584 
C424     C      0.891680000000     0.052340000000     0.793750000000     0.0355835  
C425     C      0.540250000000     0.398260000000     0.764560000000    -0.0123378  
C426     C      0.979690000000     0.400200000000     0.772490000000    -0.0244395  
C427     C      0.544070000000     0.421540000000     0.793850000000    -0.00838581 
C428     C      0.985300000000     0.420310000000     0.803300000000     0.0369275  
C429     C      0.959710000000     0.172720000000     0.719210000000    -0.0100967  
C430     C      0.517330000000     0.171670000000     0.703110000000    -0.0211862  
C431     C      0.964480000000     0.141210000000     0.739710000000    -0.0108556  
C432     C      0.522880000000     0.138950000000     0.721780000000     0.0306779  
C433     C      0.994670000000     0.589730000000     0.241290000000     0.432373   
C434     C      0.512250000000     0.972340000000     0.286860000000     0.434387   
C435     C      0.943050000000     0.526520000000     0.273800000000     0.434335   
C436     C      0.563380000000     0.537600000000     0.253660000000     0.434342   
C437     C      0.008080000000     0.797950000000     0.180700000000     0.426499   
C438     C      0.992110000000     0.772560000000     0.299760000000     0.430264   
C439     C      0.493660000000     0.723540000000     0.226050000000     0.427575   
C440     C      0.506240000000     0.847800000000     0.254920000000     0.426089   
C441     C      0.751140000000     0.032310000000     0.325540000000     0.435398   
C442     C      0.751270000000     0.027100000000     0.203900000000     0.433113   
C443     C      0.690340000000     0.528790000000     0.266100000000     0.42981    
C444     C      0.812790000000     0.530710000000     0.263830000000     0.430008   
C445     C      0.766390000000     0.513440000000     0.449380000000     0.431535   
C446     C      0.756800000000     0.018440000000     0.070650000000     0.431264   
C447     C      0.760190000000     0.580330000000     0.508750000000     0.429587   
C448     C      0.762390000000     0.952170000000     0.510540000000     0.429135   
C449     C      0.508460000000     0.787420000000     0.049840000000     0.43098    
C450     C      0.005950000000     0.784150000000     0.427420000000     0.424835   
C451     C      0.567590000000     0.796290000000     0.987410000000     0.433065   
C452     C      0.946540000000     0.774970000000     0.990020000000     0.429468   
C453     C      0.694840000000     0.776110000000     0.001480000000     0.425083   
C454     C      0.816720000000     0.758960000000     0.005040000000     0.424637   
C455     C      0.746790000000     0.708140000000     0.523950000000     0.434972   
C456     C      0.764070000000     0.826990000000     0.482640000000     0.436894   
C457     C      0.868980000000     0.772380000000     0.030270000000    -0.0116994  
C458     C      0.866590000000     0.732080000000     0.484140000000    -0.0234278  
C459     C      0.895560000000     0.792110000000     0.013460000000    -0.0102417  
C460     C      0.895790000000     0.749640000000     0.468690000000     0.0340763  
C461     C      0.642750000000     0.760090000000     0.477650000000    -0.0114261  
C462     C      0.644730000000     0.800760000000     0.024020000000    -0.0233703  
C463     C      0.618270000000     0.782510000000     0.461000000000    -0.00631668 
C464     C      0.618820000000     0.822620000000     0.007390000000     0.0322601  
C465     C      0.792880000000     0.898410000000     0.008750000000    -0.012703   
C466     C      0.732770000000     0.898930000000     0.501530000000    -0.0240115  
C467     C      0.796150000000     0.877540000000     0.977930000000    -0.00672744 
C468     C      0.736820000000     0.879850000000     0.469810000000     0.0352607  
C469     C      0.783800000000     0.634950000000     0.525440000000    -0.0117953  
C470     C      0.731300000000     0.632700000000     0.495030000000    -0.0242677  
C471     C      0.767950000000     0.658490000000     0.050250000000    -0.0114407  
C472     C      0.716030000000     0.654980000000     0.020650000000     0.0382404  
C473     C      0.792000000000     0.030450000000     0.398590000000    -0.0121351  
C474     C      0.745240000000     0.990210000000     0.398940000000    -0.021833   
C475     C      0.773250000000     0.553810000000     0.375860000000    -0.00947133 
C476     C      0.726390000000     0.513850000000     0.377270000000     0.0370733  
C477     C      0.780120000000     0.005010000000     0.122880000000    -0.0102471  
C478     C      0.727150000000     0.537080000000     0.118570000000    -0.0231432  
C479     C      0.767220000000     0.995900000000     0.155990000000    -0.00741284 
C480     C      0.736920000000     0.551570000000     0.151430000000     0.0391019  
C481     C      0.487580000000     0.808360000000     0.375880000000    -0.0124125  
C482     C      0.525140000000     0.758390000000     0.376920000000    -0.0245143  
C483     C      0.967200000000     0.790500000000     0.350220000000    -0.00999238 
C484     C      0.004800000000     0.741490000000     0.350920000000     0.0369118  
C485     C      0.489240000000     0.822040000000     0.129180000000    -0.0102867  
C486     C      0.541370000000     0.790520000000     0.131980000000    -0.0237053  
C487     C      0.980130000000     0.802850000000     0.098740000000    -0.00988326 
C488     C      0.031960000000     0.769600000000     0.102350000000     0.0361518  
C489     C      0.638650000000     0.000660000000     0.254100000000    -0.0113599  
C490     C      0.639950000000     0.056160000000     0.283440000000    -0.0242596  
C491     C      0.613320000000     0.015070000000     0.231040000000    -0.0108712  
C492     C      0.615040000000     0.570000000000     0.260140000000     0.037478   
C493     C      0.863710000000     0.003130000000     0.248670000000    -0.0100919  
C494     C      0.863490000000     0.561730000000     0.271700000000    -0.0230741  
C495     C      0.892970000000     0.994500000000     0.269140000000    -0.0088491  
C496     C      0.891680000000     0.552340000000     0.293750000000     0.0355932  
C497     C      0.540250000000     0.898260000000     0.264560000000    -0.0123233  
C498     C      0.979690000000     0.900200000000     0.272490000000    -0.0244392  
C499     C      0.544070000000     0.921540000000     0.293850000000    -0.0083623  
C500     C      0.985300000000     0.920310000000     0.303300000000     0.0369346  
C501     C      0.959710000000     0.672720000000     0.219210000000    -0.0101006  
C502     C      0.517330000000     0.671670000000     0.203110000000    -0.0211823  
C503     C      0.964480000000     0.641210000000     0.239700000000    -0.0107917  
C504     C      0.522880000000     0.638960000000     0.221780000000     0.0306674  
C505     C      0.994670000000     0.589730000000     0.741290000000     0.432326   
C506     C      0.512250000000     0.972340000000     0.786860000000     0.434365   
C507     C      0.943050000000     0.526520000000     0.773800000000     0.434307   
C508     C      0.563380000000     0.537600000000     0.753660000000     0.434303   
C509     C      0.008080000000     0.797950000000     0.680700000000     0.4265     
C510     C      0.992110000000     0.772560000000     0.799760000000     0.430261   
C511     C      0.493660000000     0.723540000000     0.726050000000     0.427575   
C512     C      0.506240000000     0.847800000000     0.754920000000     0.426089   
C513     C      0.751140000000     0.032310000000     0.825550000000     0.435317   
C514     C      0.751270000000     0.027100000000     0.703900000000     0.433111   
C515     C      0.690340000000     0.528790000000     0.766100000000     0.429783   
C516     C      0.812790000000     0.530710000000     0.763820000000     0.430006   
C517     C      0.766390000000     0.513440000000     0.949380000000     0.431367   
C518     C      0.756800000000     0.018440000000     0.570650000000     0.431338   
C519     C      0.760190000000     0.580330000000     0.008750000000     0.429437   
C520     C      0.762390000000     0.952170000000     0.010540000000     0.428874   
C521     C      0.508460000000     0.787420000000     0.549840000000     0.430781   
C522     C      0.005950000000     0.784150000000     0.927420000000     0.424846   
C523     C      0.567590000000     0.796290000000     0.487410000000     0.432848   
C524     C      0.946540000000     0.774970000000     0.490020000000     0.429336   
C525     C      0.694840000000     0.776110000000     0.501480000000     0.426521   
C526     C      0.816720000000     0.758960000000     0.505040000000     0.426091   
C527     C      0.746790000000     0.708140000000     0.023950000000     0.433576   
C528     C      0.764070000000     0.826990000000     0.982650000000     0.438413   
C529     C      0.868980000000     0.772380000000     0.530270000000    -0.0121509  
C530     C      0.866590000000     0.732080000000     0.984140000000    -0.0226068  
C531     C      0.895560000000     0.792110000000     0.513460000000    -0.00788526 
C532     C      0.895790000000     0.749640000000     0.968700000000     0.0339392  
C533     C      0.642750000000     0.760090000000     0.977650000000    -0.0105351  
C534     C      0.644730000000     0.800760000000     0.524020000000    -0.0236936  
C535     C      0.618270000000     0.782510000000     0.961000000000    -0.00654779 
C536     C      0.618820000000     0.822620000000     0.507390000000     0.0342806  
C537     C      0.792880000000     0.898410000000     0.508750000000    -0.0114965  
C538     C      0.732770000000     0.898930000000     0.001530000000    -0.0251711  
C539     C      0.796150000000     0.877540000000     0.477930000000    -0.00799496 
C540     C      0.736820000000     0.879850000000     0.969810000000     0.0363138  
C541     C      0.783800000000     0.634950000000     0.025440000000    -0.0117105  
C542     C      0.731300000000     0.632700000000     0.995030000000    -0.0222353  
C543     C      0.767950000000     0.658490000000     0.550250000000    -0.0112407  
C544     C      0.716030000000     0.654980000000     0.520650000000     0.0393853  
C545     C      0.792000000000     0.030450000000     0.898590000000    -0.0121672  
C546     C      0.745240000000     0.990210000000     0.898940000000    -0.0218167  
C547     C      0.773250000000     0.553810000000     0.875860000000    -0.00944827 
C548     C      0.726390000000     0.513850000000     0.877270000000     0.0370647  
C549     C      0.780120000000     0.005010000000     0.622880000000    -0.0102484  
C550     C      0.727150000000     0.537080000000     0.618570000000    -0.0231455  
C551     C      0.767220000000     0.995900000000     0.655990000000    -0.00741528 
C552     C      0.736920000000     0.551570000000     0.651430000000     0.0390948  
C553     C      0.487580000000     0.808360000000     0.875880000000    -0.0124177  
C554     C      0.525140000000     0.758390000000     0.876920000000    -0.0245205  
C555     C      0.967200000000     0.790500000000     0.850220000000    -0.00999336 
C556     C      0.004800000000     0.741490000000     0.850920000000     0.0369059  
C557     C      0.489240000000     0.822040000000     0.629180000000    -0.0102839  
C558     C      0.541370000000     0.790520000000     0.631980000000    -0.0237122  
C559     C      0.980130000000     0.802850000000     0.598740000000    -0.00989568 
C560     C      0.031960000000     0.769600000000     0.602350000000     0.0361303  
C561     C      0.638650000000     0.000660000000     0.754100000000    -0.0113619  
C562     C      0.639950000000     0.056160000000     0.783440000000    -0.0242685  
C563     C      0.613320000000     0.015070000000     0.731040000000    -0.0108748  
C564     C      0.615040000000     0.570000000000     0.760140000000     0.0374746  
C565     C      0.863710000000     0.003130000000     0.748670000000    -0.0100979  
C566     C      0.863490000000     0.561730000000     0.771700000000    -0.0230674  
C567     C      0.892970000000     0.994500000000     0.769140000000    -0.00885054 
C568     C      0.891680000000     0.552340000000     0.793750000000     0.035583   
C569     C      0.540250000000     0.898260000000     0.764560000000    -0.0123174  
C570     C      0.979690000000     0.900200000000     0.772490000000    -0.0244397  
C571     C      0.544070000000     0.921540000000     0.793850000000    -0.00839511 
C572     C      0.985300000000     0.920310000000     0.803300000000     0.0369267  
C573     C      0.959710000000     0.672720000000     0.719210000000    -0.0100945  
C574     C      0.517330000000     0.671670000000     0.703110000000    -0.0211857  
C575     C      0.964480000000     0.641210000000     0.739710000000    -0.010854   
C576     C      0.522880000000     0.638960000000     0.721780000000     0.0306597  
H1       H      0.384430000000     0.312310000000     0.998680000000     0.042354   
H2       H      0.354700000000     0.290060000000     0.045240000000     0.0424675  
H3       H      0.386010000000     0.267450000000     0.450590000000     0.0301477  
H4       H      0.350590000000     0.221940000000     0.465080000000     0.0478646  
H5       H      0.411060000000     0.304200000000     0.031960000000     0.036922   
H6       H      0.380270000000     0.253460000000     0.046370000000     0.0407356  
H7       H      0.375420000000     0.210310000000     0.498420000000     0.0446484  
H8       H      0.435410000000     0.235000000000     0.422550000000     0.0367144  
H9       H      0.131580000000     0.300460000000     0.445420000000     0.0389256  
H10      H      0.157560000000     0.247080000000     0.459250000000     0.0445099  
H11      H      0.131680000000     0.342250000000     0.493380000000     0.0316761  
H12      H      0.161430000000     0.317410000000     0.037550000000     0.0469561  
H13      H      0.102470000000     0.266970000000     0.445320000000     0.0380407  
H14      H      0.129440000000     0.240410000000     0.991190000000     0.0435371  
H15      H      0.132770000000     0.283690000000     0.041480000000     0.0467007  
H16      H      0.084640000000     0.373850000000     0.025810000000     0.0389978  
H17      H      0.300890000000     0.395030000000     0.957670000000     0.0398243  
H18      H      0.314520000000     0.414550000000     0.011610000000     0.0437168  
H19      H      0.239840000000     0.398910000000     0.450500000000     0.0314176  
H20      H      0.211170000000     0.415350000000     0.500030000000     0.0495172  
H21      H      0.317060000000     0.360150000000     0.980130000000     0.0322292  
H22      H      0.292240000000     0.380860000000     0.029490000000     0.0461606  
H23      H      0.228670000000     0.380550000000     0.521210000000     0.052297   
H24      H      0.204690000000     0.340400000000     0.431720000000     0.0417734  
H25      H      0.258510000000     0.142900000000     0.070290000000     0.0402425  
H26      H      0.302060000000     0.119110000000     0.037750000000     0.0437252  
H27      H      0.206290000000     0.138020000000     0.039520000000     0.0316706  
H28      H      0.212890000000     0.115470000000     0.484790000000     0.0495992  
H29      H      0.286310000000     0.176130000000     0.060030000000     0.0377668  
H30      H      0.296410000000     0.150710000000     0.507340000000     0.0424839  
H31      H      0.240190000000     0.148840000000     0.475140000000     0.0528729  
H32      H      0.170700000000     0.199480000000     0.027710000000     0.0371272  
H33      H      0.260560000000     0.073080000000     0.390490000000     0.0402878  
H34      H      0.307850000000     0.045830000000     0.414300000000     0.0418868  
H35      H      0.213000000000     0.031300000000     0.393310000000     0.0338953  
H36      H      0.228640000000     0.475970000000     0.414910000000     0.0467064  
H37      H      0.290480000000     0.066870000000     0.359650000000     0.0386329  
H38      H      0.307340000000     0.513480000000     0.383900000000     0.0413008  
H39      H      0.258250000000     0.471710000000     0.383700000000     0.0478665  
H40      H      0.175020000000     0.013670000000     0.341750000000     0.0354061  
H41      H      0.248930000000     0.475630000000     0.153610000000     0.0421789  
H42      H      0.289980000000     0.481980000000     0.111300000000     0.0394415  
H43      H      0.214910000000     0.061290000000     0.163470000000     0.0277832  
H44      H      0.207480000000     0.018480000000     0.122140000000     0.0447002  
H45      H      0.287330000000     0.485870000000     0.170800000000     0.0396181  
H46      H      0.300270000000     0.523230000000     0.125340000000     0.0463523  
H47      H      0.217360000000     0.057430000000     0.103020000000     0.0445361  
H48      H      0.257070000000     0.110600000000     0.168720000000     0.0379651  
H49      H      0.447990000000     0.275850000000     0.362470000000     0.0382326  
H50      H      0.471490000000     0.323840000000     0.391260000000     0.0414335  
H51      H      0.486410000000     0.226220000000     0.363730000000     0.0302361  
H52      H      0.035690000000     0.238950000000     0.392970000000     0.0478624  
H53      H      0.455560000000     0.309780000000     0.334730000000     0.0400495  
H54      H      0.004840000000     0.325460000000     0.363650000000     0.0420203  
H55      H      0.045440000000     0.271790000000     0.365120000000     0.0473105  
H56      H      0.508660000000     0.193550000000     0.308670000000     0.0381368  
H57      H      0.463890000000     0.281850000000     0.105690000000     0.039093   
H58      H      0.467070000000     0.328490000000     0.142770000000     0.0424029  
H59      H      0.520440000000     0.245980000000     0.110860000000     0.0325072  
H60      H      0.056790000000     0.274900000000     0.147930000000     0.0476952  
H61      H      0.466140000000     0.319760000000     0.082660000000     0.0391917  
H62      H      0.000810000000     0.346070000000     0.121850000000     0.0398995  
H63      H      0.055700000000     0.312680000000     0.124070000000     0.0467855  
H64      H      0.565970000000     0.226260000000     0.070040000000     0.0391085  
H65      H      0.125930000000     0.025860000000     0.209890000000     0.0396466  
H66      H      0.153930000000     0.482300000000     0.240930000000     0.0419839  
H67      H      0.128660000000     0.081050000000     0.239730000000     0.0302359  
H68      H      0.156130000000     0.076680000000     0.291750000000     0.0475801  
H69      H      0.097470000000     0.494300000000     0.222640000000     0.0408395  
H70      H      0.126000000000     0.487090000000     0.273720000000     0.0395084  
H71      H      0.127170000000     0.546070000000     0.304810000000     0.0465352  
H72      H      0.099840000000     0.133540000000     0.262350000000     0.0282717  
H73      H      0.384220000000     0.481860000000     0.291260000000     0.0396647  
H74      H      0.348680000000     0.480230000000     0.245420000000     0.0421312  
H75      H      0.381350000000     0.542740000000     0.316590000000     0.0308268  
H76      H      0.347860000000     0.080370000000     0.284130000000     0.0462991  
H77      H      0.408440000000     0.476200000000     0.256080000000     0.0407602  
H78      H      0.372420000000     0.010870000000     0.224570000000     0.0409958  
H79      H      0.373090000000     0.073620000000     0.249520000000     0.0464786  
H80      H      0.424980000000     0.088850000000     0.333490000000     0.0381093  
H81      H      0.048990000000     0.405590000000     0.315200000000     0.0384545  
H82      H      0.060860000000     0.380450000000     0.263830000000     0.0435788  
H83      H      0.489140000000     0.401900000000     0.323040000000     0.0297269  
H84      H      0.458260000000     0.383830000000     0.276000000000     0.0482481  
H85      H      0.065100000000     0.438480000000     0.290170000000     0.0313382  
H86      H      0.041700000000     0.414000000000     0.242590000000     0.0448938  
H87      H      0.474320000000     0.417700000000     0.252400000000     0.054579   
H88      H      0.456240000000     0.462910000000     0.340670000000     0.0429145  
H89      H      0.468340000000     0.149080000000     0.265020000000     0.0439699  
H90      H      0.440360000000     0.188390000000     0.229970000000     0.0427622  
H91      H      0.534670000000     0.145410000000     0.244920000000     0.0351842  
H92      H      0.040010000000     0.186520000000     0.202410000000     0.045649   
H93      H      0.442150000000     0.125750000000     0.238980000000     0.0346453  
H94      H      0.951930000000     0.164830000000     0.194830000000     0.0410118  
H95      H      0.010990000000     0.165270000000     0.177920000000     0.0432707  
H96      H      0.080920000000     0.125080000000     0.202420000000     0.0282792  
H97      H      0.384430000000     0.312310000000     0.498680000000     0.0410685  
H98      H      0.354700000000     0.290060000000     0.545250000000     0.0426666  
H99      H      0.386010000000     0.267450000000     0.950590000000     0.0302571  
H100     H      0.350590000000     0.221940000000     0.965090000000     0.0478726  
H101     H      0.411060000000     0.304200000000     0.531960000000     0.0367226  
H102     H      0.380270000000     0.253460000000     0.546370000000     0.0410251  
H103     H      0.375420000000     0.210310000000     0.998420000000     0.0449189  
H104     H      0.435410000000     0.235000000000     0.922550000000     0.0366815  
H105     H      0.131580000000     0.300460000000     0.945420000000     0.0390759  
H106     H      0.157560000000     0.247080000000     0.959250000000     0.0445055  
H107     H      0.131680000000     0.342250000000     0.993380000000     0.0329297  
H108     H      0.161430000000     0.317410000000     0.537550000000     0.0471298  
H109     H      0.102470000000     0.266970000000     0.945320000000     0.0381229  
H110     H      0.129440000000     0.240410000000     0.491190000000     0.043263   
H111     H      0.132770000000     0.283690000000     0.541480000000     0.0468949  
H112     H      0.084640000000     0.373850000000     0.525810000000     0.0393319  
H113     H      0.300890000000     0.395030000000     0.457670000000     0.0398713  
H114     H      0.314520000000     0.414550000000     0.511610000000     0.0437329  
H115     H      0.239840000000     0.398910000000     0.950500000000     0.0313807  
H116     H      0.211170000000     0.415350000000     0.000030000000     0.0494364  
H117     H      0.317060000000     0.360150000000     0.480130000000     0.0321834  
H118     H      0.292240000000     0.380860000000     0.529490000000     0.0460555  
H119     H      0.228670000000     0.380550000000     0.021210000000     0.0523647  
H120     H      0.204690000000     0.340400000000     0.931720000000     0.0417217  
H121     H      0.258510000000     0.142900000000     0.570290000000     0.0402078  
H122     H      0.302060000000     0.119110000000     0.537750000000     0.0438453  
H123     H      0.206290000000     0.138020000000     0.539520000000     0.031536   
H124     H      0.212890000000     0.115470000000     0.984790000000     0.0496643  
H125     H      0.286310000000     0.176130000000     0.560030000000     0.0377728  
H126     H      0.296410000000     0.150710000000     0.007340000000     0.0420919  
H127     H      0.240190000000     0.148840000000     0.975140000000     0.0527858  
H128     H      0.170700000000     0.199480000000     0.527710000000     0.0371607  
H129     H      0.260560000000     0.073080000000     0.890490000000     0.0403677  
H130     H      0.307850000000     0.045830000000     0.914300000000     0.0420296  
H131     H      0.213000000000     0.031300000000     0.893310000000     0.0339873  
H132     H      0.228640000000     0.475970000000     0.914910000000     0.0468256  
H133     H      0.290480000000     0.066870000000     0.859650000000     0.0386581  
H134     H      0.307340000000     0.513480000000     0.883910000000     0.041367   
H135     H      0.258250000000     0.471710000000     0.883690000000     0.0478945  
H136     H      0.175020000000     0.013670000000     0.841750000000     0.0354277  
H137     H      0.248930000000     0.475630000000     0.653610000000     0.042184   
H138     H      0.289980000000     0.481980000000     0.611300000000     0.0394612  
H139     H      0.214910000000     0.061290000000     0.663470000000     0.0277936  
H140     H      0.207480000000     0.018480000000     0.622140000000     0.0447279  
H141     H      0.287330000000     0.485870000000     0.670800000000     0.039622   
H142     H      0.300270000000     0.523230000000     0.625340000000     0.0463771  
H143     H      0.217360000000     0.057430000000     0.603020000000     0.0445686  
H144     H      0.257070000000     0.110600000000     0.668730000000     0.0379592  
H145     H      0.447990000000     0.275850000000     0.862470000000     0.0382404  
H146     H      0.471490000000     0.323840000000     0.891260000000     0.0414722  
H147     H      0.486410000000     0.226220000000     0.863730000000     0.0302584  
H148     H      0.035690000000     0.238950000000     0.892970000000     0.0478962  
H149     H      0.455560000000     0.309780000000     0.834730000000     0.0400565  
H150     H      0.004840000000     0.325460000000     0.863650000000     0.0420419  
H151     H      0.045440000000     0.271790000000     0.865120000000     0.047321   
H152     H      0.508660000000     0.193550000000     0.808670000000     0.0381404  
H153     H      0.463890000000     0.281850000000     0.605690000000     0.0391571  
H154     H      0.467070000000     0.328490000000     0.642770000000     0.0424283  
H155     H      0.520440000000     0.245980000000     0.610860000000     0.0325544  
H156     H      0.056790000000     0.274900000000     0.647930000000     0.0476976  
H157     H      0.466140000000     0.319760000000     0.582660000000     0.0393114  
H158     H      0.000810000000     0.346070000000     0.621850000000     0.0399504  
H159     H      0.055700000000     0.312680000000     0.624080000000     0.0468109  
H160     H      0.565970000000     0.226260000000     0.570040000000     0.039249   
H161     H      0.125930000000     0.025860000000     0.709890000000     0.0396644  
H162     H      0.153930000000     0.482300000000     0.740930000000     0.0419937  
H163     H      0.128660000000     0.081050000000     0.739730000000     0.0302399  
H164     H      0.156130000000     0.076680000000     0.791750000000     0.0475961  
H165     H      0.097470000000     0.494300000000     0.722640000000     0.0408557  
H166     H      0.126000000000     0.487090000000     0.773720000000     0.0395163  
H167     H      0.127170000000     0.546070000000     0.804810000000     0.0465656  
H168     H      0.099840000000     0.133540000000     0.762350000000     0.0282701  
H169     H      0.384220000000     0.481860000000     0.791260000000     0.0396796  
H170     H      0.348680000000     0.480230000000     0.745420000000     0.0421331  
H171     H      0.381350000000     0.542740000000     0.816590000000     0.0308616  
H172     H      0.347860000000     0.080370000000     0.784130000000     0.046309   
H173     H      0.408440000000     0.476200000000     0.756080000000     0.0407685  
H174     H      0.372420000000     0.010870000000     0.724570000000     0.041007   
H175     H      0.373090000000     0.073620000000     0.749520000000     0.0464791  
H176     H      0.424980000000     0.088850000000     0.833500000000     0.0381478  
H177     H      0.048990000000     0.405590000000     0.815190000000     0.0384937  
H178     H      0.060860000000     0.380450000000     0.763830000000     0.043579   
H179     H      0.489140000000     0.401900000000     0.823040000000     0.0297527  
H180     H      0.458260000000     0.383830000000     0.776000000000     0.0482513  
H181     H      0.065100000000     0.438480000000     0.790170000000     0.0313611  
H182     H      0.041700000000     0.414000000000     0.742590000000     0.0449032  
H183     H      0.474320000000     0.417700000000     0.752400000000     0.0545888  
H184     H      0.456240000000     0.462910000000     0.840670000000     0.0429617  
H185     H      0.468340000000     0.149080000000     0.765020000000     0.0439969  
H186     H      0.440360000000     0.188390000000     0.729960000000     0.0427686  
H187     H      0.534670000000     0.145410000000     0.744920000000     0.0351864  
H188     H      0.040010000000     0.186520000000     0.702410000000     0.045656   
H189     H      0.442150000000     0.125750000000     0.738980000000     0.0346721  
H190     H      0.951930000000     0.164830000000     0.694830000000     0.0410368  
H191     H      0.010990000000     0.165270000000     0.677920000000     0.0433062  
H192     H      0.080920000000     0.125080000000     0.702420000000     0.0282823  
H193     H      0.384430000000     0.812310000000     0.998680000000     0.0423516  
H194     H      0.354700000000     0.790060000000     0.045240000000     0.0424639  
H195     H      0.386010000000     0.767460000000     0.450590000000     0.0301393  
H196     H      0.350590000000     0.721940000000     0.465080000000     0.0478652  
H197     H      0.411060000000     0.804200000000     0.031960000000     0.0369227  
H198     H      0.380270000000     0.753450000000     0.046370000000     0.0407292  
H199     H      0.375420000000     0.710310000000     0.498420000000     0.0446476  
H200     H      0.435410000000     0.735000000000     0.422550000000     0.0367141  
H201     H      0.131580000000     0.800460000000     0.445420000000     0.038913   
H202     H      0.157560000000     0.747080000000     0.459250000000     0.0445229  
H203     H      0.131680000000     0.842250000000     0.493380000000     0.0316804  
H204     H      0.161430000000     0.817420000000     0.037550000000     0.046934   
H205     H      0.102470000000     0.766970000000     0.445320000000     0.0380243  
H206     H      0.129440000000     0.740410000000     0.991190000000     0.0435466  
H207     H      0.132770000000     0.783690000000     0.041480000000     0.0466844  
H208     H      0.084640000000     0.873840000000     0.025810000000     0.0390111  
H209     H      0.300890000000     0.895030000000     0.957670000000     0.0398334  
H210     H      0.314520000000     0.914550000000     0.011610000000     0.0437147  
H211     H      0.239840000000     0.898910000000     0.450500000000     0.0314139  
H212     H      0.211170000000     0.915350000000     0.500030000000     0.0495267  
H213     H      0.317060000000     0.860150000000     0.980130000000     0.0322327  
H214     H      0.292240000000     0.880860000000     0.029490000000     0.0461595  
H215     H      0.228670000000     0.880550000000     0.521210000000     0.0523129  
H216     H      0.204690000000     0.840410000000     0.431720000000     0.041778   
H217     H      0.258510000000     0.642900000000     0.070290000000     0.0402405  
H218     H      0.302060000000     0.619110000000     0.037750000000     0.0437257  
H219     H      0.206290000000     0.638020000000     0.039520000000     0.0316695  
H220     H      0.212890000000     0.615470000000     0.484790000000     0.0496004  
H221     H      0.286310000000     0.676130000000     0.060030000000     0.0377612  
H222     H      0.296410000000     0.650710000000     0.507340000000     0.0424827  
H223     H      0.240190000000     0.648840000000     0.475140000000     0.0528668  
H224     H      0.170700000000     0.699480000000     0.027710000000     0.0371262  
H225     H      0.260560000000     0.573080000000     0.390490000000     0.0402878  
H226     H      0.307850000000     0.545830000000     0.414300000000     0.0418884  
H227     H      0.213000000000     0.531300000000     0.393310000000     0.0338937  
H228     H      0.228640000000     0.975970000000     0.414910000000     0.0467054  
H229     H      0.290480000000     0.566870000000     0.359650000000     0.0386328  
H230     H      0.307340000000     0.013480000000     0.383900000000     0.0412988  
H231     H      0.258250000000     0.971710000000     0.383700000000     0.0478655  
H232     H      0.175020000000     0.513670000000     0.341750000000     0.0354127  
H233     H      0.248930000000     0.975630000000     0.153610000000     0.0421765  
H234     H      0.289980000000     0.981980000000     0.111300000000     0.0394528  
H235     H      0.214910000000     0.561290000000     0.163470000000     0.027797   
H236     H      0.207480000000     0.518480000000     0.122140000000     0.0446966  
H237     H      0.287330000000     0.985870000000     0.170800000000     0.0396163  
H238     H      0.300270000000     0.023230000000     0.125340000000     0.0463548  
H239     H      0.217360000000     0.557430000000     0.103020000000     0.04453    
H240     H      0.257070000000     0.610600000000     0.168720000000     0.0379631  
H241     H      0.447990000000     0.775850000000     0.362470000000     0.0382352  
H242     H      0.471490000000     0.823840000000     0.391260000000     0.0414244  
H243     H      0.486410000000     0.726220000000     0.363730000000     0.0302365  
H244     H      0.035690000000     0.738950000000     0.392970000000     0.047862   
H245     H      0.455560000000     0.809780000000     0.334730000000     0.040051   
H246     H      0.004840000000     0.825470000000     0.363650000000     0.042      
H247     H      0.045440000000     0.771790000000     0.365120000000     0.0473093  
H248     H      0.508660000000     0.693550000000     0.308670000000     0.0381399  
H249     H      0.463890000000     0.781850000000     0.105690000000     0.039087   
H250     H      0.467070000000     0.828490000000     0.142770000000     0.0424058  
H251     H      0.520440000000     0.745980000000     0.110860000000     0.0325068  
H252     H      0.056790000000     0.774900000000     0.147930000000     0.0476957  
H253     H      0.466140000000     0.819760000000     0.082660000000     0.0391826  
H254     H      0.000810000000     0.846070000000     0.121850000000     0.0399025  
H255     H      0.055700000000     0.812680000000     0.124070000000     0.0467862  
H256     H      0.565970000000     0.726260000000     0.070040000000     0.0391081  
H257     H      0.125930000000     0.525860000000     0.209890000000     0.0396471  
H258     H      0.153930000000     0.982300000000     0.240930000000     0.0419933  
H259     H      0.128660000000     0.581050000000     0.239730000000     0.0302415  
H260     H      0.156130000000     0.576680000000     0.291750000000     0.0475507  
H261     H      0.097470000000     0.994300000000     0.222640000000     0.0408453  
H262     H      0.126000000000     0.987090000000     0.273720000000     0.0395178  
H263     H      0.127170000000     0.046070000000     0.304810000000     0.0465566  
H264     H      0.099840000000     0.633540000000     0.262350000000     0.0282707  
H265     H      0.384220000000     0.981860000000     0.291260000000     0.0396635  
H266     H      0.348680000000     0.980230000000     0.245420000000     0.0421403  
H267     H      0.381350000000     0.042740000000     0.316590000000     0.0308253  
H268     H      0.347860000000     0.580370000000     0.284130000000     0.0462989  
H269     H      0.408440000000     0.976200000000     0.256080000000     0.0407587  
H270     H      0.372420000000     0.510870000000     0.224570000000     0.0409941  
H271     H      0.373090000000     0.573620000000     0.249520000000     0.0464786  
H272     H      0.424980000000     0.588850000000     0.333490000000     0.0381098  
H273     H      0.048990000000     0.905590000000     0.315200000000     0.0384557  
H274     H      0.060860000000     0.880450000000     0.263830000000     0.0435743  
H275     H      0.489140000000     0.901900000000     0.323040000000     0.029726   
H276     H      0.458260000000     0.883830000000     0.276000000000     0.0482477  
H277     H      0.065100000000     0.938480000000     0.290170000000     0.0313402  
H278     H      0.041700000000     0.914010000000     0.242590000000     0.0448873  
H279     H      0.474320000000     0.917700000000     0.252400000000     0.0545796  
H280     H      0.456240000000     0.962910000000     0.340670000000     0.0429159  
H281     H      0.468340000000     0.649080000000     0.265020000000     0.0439704  
H282     H      0.440360000000     0.688400000000     0.229970000000     0.0427647  
H283     H      0.534670000000     0.645410000000     0.244920000000     0.0351896  
H284     H      0.040010000000     0.686520000000     0.202410000000     0.0456496  
H285     H      0.442150000000     0.625750000000     0.238980000000     0.0346463  
H286     H      0.951930000000     0.664840000000     0.194830000000     0.0410132  
H287     H      0.010990000000     0.665270000000     0.177920000000     0.0432712  
H288     H      0.080920000000     0.625070000000     0.202420000000     0.0282826  
H289     H      0.384430000000     0.812310000000     0.498680000000     0.0410667  
H290     H      0.354700000000     0.790060000000     0.545250000000     0.0426629  
H291     H      0.386010000000     0.767460000000     0.950590000000     0.0302487  
H292     H      0.350590000000     0.721940000000     0.965090000000     0.0478733  
H293     H      0.411060000000     0.804200000000     0.531960000000     0.0367234  
H294     H      0.380270000000     0.753450000000     0.546370000000     0.0410185  
H295     H      0.375420000000     0.710310000000     0.998420000000     0.0449181  
H296     H      0.435410000000     0.735000000000     0.922550000000     0.0366812  
H297     H      0.131580000000     0.800460000000     0.945420000000     0.0390633  
H298     H      0.157560000000     0.747080000000     0.959250000000     0.0445185  
H299     H      0.131680000000     0.842250000000     0.993380000000     0.0329334  
H300     H      0.161430000000     0.817420000000     0.537550000000     0.0471075  
H301     H      0.102470000000     0.766970000000     0.945320000000     0.0381064  
H302     H      0.129440000000     0.740410000000     0.491190000000     0.0432726  
H303     H      0.132770000000     0.783690000000     0.541480000000     0.0468785  
H304     H      0.084640000000     0.873840000000     0.525810000000     0.039345   
H305     H      0.300890000000     0.895030000000     0.457670000000     0.0398807  
H306     H      0.314520000000     0.914550000000     0.511610000000     0.0437307  
H307     H      0.239840000000     0.898910000000     0.950500000000     0.0313769  
H308     H      0.211170000000     0.915350000000     0.000030000000     0.049446   
H309     H      0.317060000000     0.860150000000     0.480130000000     0.032187   
H310     H      0.292240000000     0.880860000000     0.529490000000     0.0460544  
H311     H      0.228670000000     0.880550000000     0.021210000000     0.0523809  
H312     H      0.204690000000     0.840410000000     0.931720000000     0.0417263  
H313     H      0.258510000000     0.642900000000     0.570290000000     0.0402059  
H314     H      0.302060000000     0.619110000000     0.537750000000     0.0438457  
H315     H      0.206290000000     0.638020000000     0.539520000000     0.0315351  
H316     H      0.212890000000     0.615470000000     0.984790000000     0.0496654  
H317     H      0.286310000000     0.676130000000     0.560030000000     0.0377672  
H318     H      0.296410000000     0.650710000000     0.007340000000     0.0420909  
H319     H      0.240190000000     0.648840000000     0.975140000000     0.0527798  
H320     H      0.170700000000     0.699480000000     0.527710000000     0.0371598  
H321     H      0.260560000000     0.573080000000     0.890490000000     0.0403677  
H322     H      0.307850000000     0.545830000000     0.914300000000     0.0420311  
H323     H      0.213000000000     0.531300000000     0.893310000000     0.0339859  
H324     H      0.228640000000     0.975970000000     0.914910000000     0.0468247  
H325     H      0.290480000000     0.566870000000     0.859650000000     0.0386581  
H326     H      0.307340000000     0.013480000000     0.883910000000     0.0413651  
H327     H      0.258250000000     0.971710000000     0.883690000000     0.0478937  
H328     H      0.175020000000     0.513670000000     0.841750000000     0.0354337  
H329     H      0.248930000000     0.975630000000     0.653610000000     0.0421818  
H330     H      0.289980000000     0.981980000000     0.611300000000     0.0394718  
H331     H      0.214910000000     0.561290000000     0.663470000000     0.0278073  
H332     H      0.207480000000     0.518480000000     0.622140000000     0.0447241  
H333     H      0.287330000000     0.985870000000     0.670800000000     0.0396203  
H334     H      0.300270000000     0.023230000000     0.625340000000     0.0463794  
H335     H      0.217360000000     0.557430000000     0.603020000000     0.0445626  
H336     H      0.257070000000     0.610600000000     0.668730000000     0.0379572  
H337     H      0.447990000000     0.775850000000     0.862470000000     0.038243   
H338     H      0.471490000000     0.823840000000     0.891260000000     0.0414631  
H339     H      0.486410000000     0.726220000000     0.863730000000     0.0302588  
H340     H      0.035690000000     0.738950000000     0.892970000000     0.0478958  
H341     H      0.455560000000     0.809780000000     0.834730000000     0.040058   
H342     H      0.004840000000     0.825470000000     0.863650000000     0.0420216  
H343     H      0.045440000000     0.771790000000     0.865120000000     0.0473197  
H344     H      0.508660000000     0.693550000000     0.808670000000     0.0381435  
H345     H      0.463890000000     0.781850000000     0.605690000000     0.039151   
H346     H      0.467070000000     0.828490000000     0.642770000000     0.0424312  
H347     H      0.520440000000     0.745980000000     0.610860000000     0.032554   
H348     H      0.056790000000     0.774900000000     0.647930000000     0.047698   
H349     H      0.466140000000     0.819760000000     0.582660000000     0.0393022  
H350     H      0.000810000000     0.846070000000     0.621850000000     0.0399533  
H351     H      0.055700000000     0.812680000000     0.624080000000     0.0468117  
H352     H      0.565970000000     0.726260000000     0.570040000000     0.0392486  
H353     H      0.125930000000     0.525860000000     0.709890000000     0.039665   
H354     H      0.153930000000     0.982300000000     0.740930000000     0.0420024  
H355     H      0.128660000000     0.581050000000     0.739730000000     0.0302455  
H356     H      0.156130000000     0.576680000000     0.791750000000     0.0475667  
H357     H      0.097470000000     0.994300000000     0.722640000000     0.0408609  
H358     H      0.126000000000     0.987090000000     0.773720000000     0.0395251  
H359     H      0.127170000000     0.046070000000     0.804810000000     0.046587   
H360     H      0.099840000000     0.633540000000     0.762350000000     0.0282691  
H361     H      0.384220000000     0.981860000000     0.791260000000     0.0396785  
H362     H      0.348680000000     0.980230000000     0.745420000000     0.0421415  
H363     H      0.381350000000     0.042740000000     0.816590000000     0.0308603  
H364     H      0.347860000000     0.580370000000     0.784130000000     0.0463088  
H365     H      0.408440000000     0.976200000000     0.756080000000     0.0407672  
H366     H      0.372420000000     0.510870000000     0.724570000000     0.0410054  
H367     H      0.373090000000     0.573620000000     0.749520000000     0.0464791  
H368     H      0.424980000000     0.588850000000     0.833500000000     0.0381482  
H369     H      0.048990000000     0.905590000000     0.815190000000     0.0384949  
H370     H      0.060860000000     0.880450000000     0.763830000000     0.0435746  
H371     H      0.489140000000     0.901900000000     0.823040000000     0.0297518  
H372     H      0.458260000000     0.883830000000     0.776000000000     0.0482509  
H373     H      0.065100000000     0.938480000000     0.790170000000     0.031363   
H374     H      0.041700000000     0.914010000000     0.742590000000     0.0448967  
H375     H      0.474320000000     0.917700000000     0.752400000000     0.0545893  
H376     H      0.456240000000     0.962910000000     0.840670000000     0.0429629  
H377     H      0.468340000000     0.649080000000     0.765020000000     0.0439974  
H378     H      0.440360000000     0.688400000000     0.729960000000     0.0427711  
H379     H      0.534670000000     0.645410000000     0.744920000000     0.0351919  
H380     H      0.040010000000     0.686520000000     0.702410000000     0.0456567  
H381     H      0.442150000000     0.625750000000     0.738980000000     0.0346732  
H382     H      0.951930000000     0.664840000000     0.694830000000     0.0410383  
H383     H      0.010990000000     0.665270000000     0.677920000000     0.0433068  
H384     H      0.080920000000     0.625070000000     0.702420000000     0.0282857  
H385     H      0.884440000000     0.312310000000     0.998680000000     0.0423692  
H386     H      0.854700000000     0.290060000000     0.045240000000     0.0424678  
H387     H      0.886010000000     0.267450000000     0.450590000000     0.0301505  
H388     H      0.850590000000     0.221940000000     0.465080000000     0.047865   
H389     H      0.911060000000     0.304200000000     0.031960000000     0.0369369  
H390     H      0.880270000000     0.253460000000     0.046370000000     0.0407396  
H391     H      0.875420000000     0.210310000000     0.498420000000     0.0446537  
H392     H      0.935410000000     0.235000000000     0.422550000000     0.0367271  
H393     H      0.631580000000     0.300460000000     0.445420000000     0.0389239  
H394     H      0.657560000000     0.247080000000     0.459250000000     0.0445105  
H395     H      0.631680000000     0.342250000000     0.493380000000     0.0316749  
H396     H      0.661430000000     0.317410000000     0.037550000000     0.0469559  
H397     H      0.602470000000     0.266970000000     0.445320000000     0.0380368  
H398     H      0.629440000000     0.240410000000     0.991190000000     0.0435387  
H399     H      0.632770000000     0.283690000000     0.041480000000     0.046701   
H400     H      0.584650000000     0.373850000000     0.025810000000     0.0390047  
H401     H      0.800890000000     0.395030000000     0.957670000000     0.0398258  
H402     H      0.814520000000     0.414550000000     0.011610000000     0.0437206  
H403     H      0.739840000000     0.398910000000     0.450500000000     0.0314174  
H404     H      0.711170000000     0.415350000000     0.500030000000     0.0495176  
H405     H      0.817060000000     0.360150000000     0.980130000000     0.0322316  
H406     H      0.792240000000     0.380860000000     0.029490000000     0.0461616  
H407     H      0.728670000000     0.380550000000     0.521210000000     0.0522966  
H408     H      0.704690000000     0.340400000000     0.431720000000     0.0417726  
H409     H      0.758510000000     0.142900000000     0.070290000000     0.0402429  
H410     H      0.802060000000     0.119110000000     0.037750000000     0.0437285  
H411     H      0.706290000000     0.138020000000     0.039520000000     0.031671   
H412     H      0.712890000000     0.115470000000     0.484790000000     0.0496003  
H413     H      0.786310000000     0.176130000000     0.060030000000     0.0377677  
H414     H      0.796410000000     0.150710000000     0.507340000000     0.0424855  
H415     H      0.740190000000     0.148840000000     0.475140000000     0.0528729  
H416     H      0.670710000000     0.199480000000     0.027710000000     0.037134   
H417     H      0.760560000000     0.073080000000     0.390490000000     0.040288   
H418     H      0.807850000000     0.045830000000     0.414300000000     0.041889   
H419     H      0.713000000000     0.031300000000     0.393310000000     0.0339012  
H420     H      0.728640000000     0.475970000000     0.414910000000     0.0466823  
H421     H      0.790480000000     0.066870000000     0.359650000000     0.0386342  
H422     H      0.807340000000     0.513480000000     0.383900000000     0.0413018  
H423     H      0.758250000000     0.471710000000     0.383700000000     0.0478484  
H424     H      0.675020000000     0.013670000000     0.341750000000     0.0354056  
H425     H      0.748930000000     0.475630000000     0.153610000000     0.0421815  
H426     H      0.789980000000     0.481980000000     0.111300000000     0.0394308  
H427     H      0.714910000000     0.061290000000     0.163470000000     0.0277783  
H428     H      0.707480000000     0.018480000000     0.122140000000     0.04471    
H429     H      0.787330000000     0.485870000000     0.170800000000     0.039623   
H430     H      0.800270000000     0.523230000000     0.125340000000     0.0463457  
H431     H      0.717360000000     0.057430000000     0.103020000000     0.0445496  
H432     H      0.757070000000     0.110600000000     0.168720000000     0.0379696  
H433     H      0.947980000000     0.275850000000     0.362470000000     0.0382411  
H434     H      0.971490000000     0.323840000000     0.391260000000     0.0414172  
H435     H      0.986410000000     0.226220000000     0.363730000000     0.0303672  
H436     H      0.535690000000     0.238950000000     0.392970000000     0.0478836  
H437     H      0.955570000000     0.309780000000     0.334730000000     0.0400726  
H438     H      0.504840000000     0.325460000000     0.363650000000     0.0421453  
H439     H      0.545440000000     0.271790000000     0.365120000000     0.0473251  
H440     H      0.008660000000     0.193550000000     0.308670000000     0.0380941  
H441     H      0.963890000000     0.281850000000     0.105690000000     0.0391109  
H442     H      0.967070000000     0.328490000000     0.142770000000     0.0423793  
H443     H      0.020440000000     0.245980000000     0.110860000000     0.0324823  
H444     H      0.556790000000     0.274900000000     0.147930000000     0.0476943  
H445     H      0.966140000000     0.319760000000     0.082660000000     0.0392179  
H446     H      0.500810000000     0.346070000000     0.121850000000     0.0400161  
H447     H      0.555700000000     0.312680000000     0.124070000000     0.0467886  
H448     H      0.065970000000     0.226260000000     0.070040000000     0.0391022  
H449     H      0.625930000000     0.025860000000     0.209890000000     0.0396482  
H450     H      0.653930000000     0.482300000000     0.240930000000     0.0419829  
H451     H      0.628660000000     0.081050000000     0.239730000000     0.0302379  
H452     H      0.656130000000     0.076680000000     0.291750000000     0.0475851  
H453     H      0.597470000000     0.494300000000     0.222640000000     0.0408414  
H454     H      0.626000000000     0.487090000000     0.273720000000     0.0395077  
H455     H      0.627170000000     0.546070000000     0.304810000000     0.0465355  
H456     H      0.599840000000     0.133540000000     0.262350000000     0.0282703  
H457     H      0.884210000000     0.481860000000     0.291260000000     0.0396695  
H458     H      0.848670000000     0.480230000000     0.245420000000     0.0421313  
H459     H      0.881350000000     0.542740000000     0.316590000000     0.0308304  
H460     H      0.847860000000     0.080370000000     0.284130000000     0.0462996  
H461     H      0.908440000000     0.476200000000     0.256080000000     0.0407714  
H462     H      0.872420000000     0.010870000000     0.224570000000     0.0409962  
H463     H      0.873090000000     0.073620000000     0.249520000000     0.0464792  
H464     H      0.924980000000     0.088850000000     0.333490000000     0.0381229  
H465     H      0.548990000000     0.405590000000     0.315200000000     0.0384707  
H466     H      0.560860000000     0.380450000000     0.263830000000     0.0435754  
H467     H      0.989140000000     0.401900000000     0.323040000000     0.0297313  
H468     H      0.958270000000     0.383830000000     0.276000000000     0.048271   
H469     H      0.565100000000     0.438480000000     0.290170000000     0.0313371  
H470     H      0.541700000000     0.414000000000     0.242590000000     0.0449016  
H471     H      0.974320000000     0.417700000000     0.252400000000     0.0546163  
H472     H      0.956240000000     0.462910000000     0.340670000000     0.0429403  
H473     H      0.968340000000     0.149080000000     0.265020000000     0.0439842  
H474     H      0.940360000000     0.188390000000     0.229970000000     0.0427631  
H475     H      0.034670000000     0.145410000000     0.244920000000     0.0351749  
H476     H      0.540010000000     0.186520000000     0.202410000000     0.0456417  
H477     H      0.942140000000     0.125750000000     0.238980000000     0.0346254  
H478     H      0.451930000000     0.164830000000     0.194830000000     0.0409938  
H479     H      0.510990000000     0.165270000000     0.177920000000     0.0432897  
H480     H      0.580930000000     0.125080000000     0.202420000000     0.0282661  
H481     H      0.884440000000     0.312310000000     0.498680000000     0.0410831  
H482     H      0.854700000000     0.290060000000     0.545250000000     0.0426671  
H483     H      0.886010000000     0.267450000000     0.950590000000     0.0302599  
H484     H      0.850590000000     0.221940000000     0.965090000000     0.0478731  
H485     H      0.911060000000     0.304200000000     0.531960000000     0.0367373  
H486     H      0.880270000000     0.253460000000     0.546370000000     0.0410292  
H487     H      0.875420000000     0.210310000000     0.998420000000     0.0449242  
H488     H      0.935410000000     0.235000000000     0.922550000000     0.0366941  
H489     H      0.631580000000     0.300460000000     0.945420000000     0.0390743  
H490     H      0.657560000000     0.247080000000     0.959250000000     0.044506   
H491     H      0.631680000000     0.342250000000     0.993380000000     0.0329289  
H492     H      0.661430000000     0.317410000000     0.537550000000     0.0471296  
H493     H      0.602470000000     0.266970000000     0.945320000000     0.0381191  
H494     H      0.629440000000     0.240410000000     0.491190000000     0.0432646  
H495     H      0.632770000000     0.283690000000     0.541480000000     0.0468952  
H496     H      0.584650000000     0.373850000000     0.525810000000     0.0393389  
H497     H      0.800890000000     0.395030000000     0.457670000000     0.0398728  
H498     H      0.814520000000     0.414550000000     0.511610000000     0.0437368  
H499     H      0.739840000000     0.398910000000     0.950500000000     0.0313806  
H500     H      0.711170000000     0.415350000000     0.000030000000     0.0494368  
H501     H      0.817060000000     0.360150000000     0.480130000000     0.0321858  
H502     H      0.792240000000     0.380860000000     0.529490000000     0.0460565  
H503     H      0.728670000000     0.380550000000     0.021210000000     0.0523643  
H504     H      0.704690000000     0.340400000000     0.931720000000     0.0417209  
H505     H      0.758510000000     0.142900000000     0.570290000000     0.0402083  
H506     H      0.802060000000     0.119110000000     0.537750000000     0.0438486  
H507     H      0.706290000000     0.138020000000     0.539520000000     0.0315364  
H508     H      0.712890000000     0.115470000000     0.984790000000     0.0496654  
H509     H      0.786310000000     0.176130000000     0.560030000000     0.0377738  
H510     H      0.796410000000     0.150710000000     0.007340000000     0.0420934  
H511     H      0.740190000000     0.148840000000     0.975140000000     0.0527859  
H512     H      0.670710000000     0.199480000000     0.527710000000     0.0371675  
H513     H      0.760560000000     0.073080000000     0.890490000000     0.040368   
H514     H      0.807850000000     0.045830000000     0.914300000000     0.0420319  
H515     H      0.713000000000     0.031300000000     0.893310000000     0.0339933  
H516     H      0.728640000000     0.475970000000     0.914910000000     0.0468016  
H517     H      0.790480000000     0.066870000000     0.859650000000     0.0386594  
H518     H      0.807340000000     0.513480000000     0.883910000000     0.041368   
H519     H      0.758250000000     0.471710000000     0.883690000000     0.0478765  
H520     H      0.675020000000     0.013670000000     0.841750000000     0.0354273  
H521     H      0.748930000000     0.475630000000     0.653610000000     0.0421866  
H522     H      0.789980000000     0.481980000000     0.611300000000     0.0394505  
H523     H      0.714910000000     0.061290000000     0.663470000000     0.0277887  
H524     H      0.707480000000     0.018480000000     0.622140000000     0.0447376  
H525     H      0.787330000000     0.485870000000     0.670800000000     0.0396269  
H526     H      0.800270000000     0.523230000000     0.625340000000     0.0463705  
H527     H      0.717360000000     0.057430000000     0.603020000000     0.0445821  
H528     H      0.757070000000     0.110600000000     0.668730000000     0.0379638  
H529     H      0.947980000000     0.275850000000     0.862470000000     0.038249   
H530     H      0.971490000000     0.323840000000     0.891260000000     0.0414558  
H531     H      0.986410000000     0.226220000000     0.863730000000     0.0303896  
H532     H      0.535690000000     0.238950000000     0.892970000000     0.0479174  
H533     H      0.955570000000     0.309780000000     0.834730000000     0.0400797  
H534     H      0.504840000000     0.325460000000     0.863650000000     0.0421671  
H535     H      0.545440000000     0.271790000000     0.865120000000     0.0473355  
H536     H      0.008660000000     0.193550000000     0.808670000000     0.0380977  
H537     H      0.963890000000     0.281850000000     0.605690000000     0.039175   
H538     H      0.967070000000     0.328490000000     0.642770000000     0.0424045  
H539     H      0.020440000000     0.245980000000     0.610860000000     0.0325294  
H540     H      0.556790000000     0.274900000000     0.647930000000     0.0476966  
H541     H      0.966140000000     0.319760000000     0.582660000000     0.0393378  
H542     H      0.500810000000     0.346070000000     0.621850000000     0.0400675  
H543     H      0.555700000000     0.312680000000     0.624080000000     0.0468141  
H544     H      0.065970000000     0.226260000000     0.570040000000     0.0392427  
H545     H      0.625930000000     0.025860000000     0.709890000000     0.0396661  
H546     H      0.653930000000     0.482300000000     0.740930000000     0.0419927  
H547     H      0.628660000000     0.081050000000     0.739730000000     0.0302418  
H548     H      0.656130000000     0.076680000000     0.791750000000     0.0476011  
H549     H      0.597470000000     0.494300000000     0.722640000000     0.0408576  
H550     H      0.626000000000     0.487090000000     0.773720000000     0.0395156  
H551     H      0.627170000000     0.546070000000     0.804810000000     0.0465658  
H552     H      0.599840000000     0.133540000000     0.762350000000     0.0282687  
H553     H      0.884210000000     0.481860000000     0.791260000000     0.0396844  
H554     H      0.848670000000     0.480230000000     0.745420000000     0.0421332  
H555     H      0.881350000000     0.542740000000     0.816590000000     0.0308652  
H556     H      0.847860000000     0.080370000000     0.784130000000     0.0463095  
H557     H      0.908440000000     0.476200000000     0.756080000000     0.0407798  
H558     H      0.872420000000     0.010870000000     0.724570000000     0.0410073  
H559     H      0.873090000000     0.073620000000     0.749520000000     0.0464797  
H560     H      0.924980000000     0.088850000000     0.833500000000     0.0381614  
H561     H      0.548990000000     0.405590000000     0.815190000000     0.0385099  
H562     H      0.560860000000     0.380450000000     0.763830000000     0.0435757  
H563     H      0.989140000000     0.401900000000     0.823040000000     0.0297571  
H564     H      0.958270000000     0.383830000000     0.776000000000     0.0482742  
H565     H      0.565100000000     0.438480000000     0.790170000000     0.03136    
H566     H      0.541700000000     0.414000000000     0.742590000000     0.0449111  
H567     H      0.974320000000     0.417700000000     0.752400000000     0.0546262  
H568     H      0.956240000000     0.462910000000     0.840670000000     0.0429875  
H569     H      0.968340000000     0.149080000000     0.765020000000     0.0440111  
H570     H      0.940360000000     0.188390000000     0.729960000000     0.0427695  
H571     H      0.034670000000     0.145410000000     0.744920000000     0.0351772  
H572     H      0.540010000000     0.186520000000     0.702410000000     0.0456487  
H573     H      0.942140000000     0.125750000000     0.738980000000     0.0346522  
H574     H      0.451930000000     0.164830000000     0.694830000000     0.0410188  
H575     H      0.510990000000     0.165270000000     0.677920000000     0.0433254  
H576     H      0.580930000000     0.125080000000     0.702420000000     0.0282692  
H577     H      0.884440000000     0.812310000000     0.998680000000     0.0423668  
H578     H      0.854700000000     0.790060000000     0.045240000000     0.0424642  
H579     H      0.886010000000     0.767460000000     0.450590000000     0.0301421  
H580     H      0.850590000000     0.721940000000     0.465080000000     0.0478656  
H581     H      0.911060000000     0.804200000000     0.031960000000     0.0369376  
H582     H      0.880270000000     0.753450000000     0.046370000000     0.0407332  
H583     H      0.875420000000     0.710310000000     0.498420000000     0.0446529  
H584     H      0.935410000000     0.735000000000     0.422550000000     0.0367268  
H585     H      0.631580000000     0.800460000000     0.445420000000     0.0389114  
H586     H      0.657560000000     0.747080000000     0.459250000000     0.0445235  
H587     H      0.631680000000     0.842250000000     0.493380000000     0.0316792  
H588     H      0.661430000000     0.817420000000     0.037550000000     0.0469337  
H589     H      0.602470000000     0.766970000000     0.445320000000     0.0380205  
H590     H      0.629440000000     0.740410000000     0.991190000000     0.0435482  
H591     H      0.632770000000     0.783690000000     0.041480000000     0.0466846  
H592     H      0.584650000000     0.873840000000     0.025810000000     0.039018   
H593     H      0.800890000000     0.895030000000     0.957670000000     0.0398349  
H594     H      0.814520000000     0.914550000000     0.011610000000     0.0437185  
H595     H      0.739840000000     0.898910000000     0.450500000000     0.0314138  
H596     H      0.711170000000     0.915350000000     0.500030000000     0.049527   
H597     H      0.817060000000     0.860150000000     0.980130000000     0.0322351  
H598     H      0.792240000000     0.880860000000     0.029490000000     0.0461605  
H599     H      0.728670000000     0.880550000000     0.521210000000     0.0523125  
H600     H      0.704690000000     0.840410000000     0.431720000000     0.0417772  
H601     H      0.758510000000     0.642900000000     0.070290000000     0.040241   
H602     H      0.802060000000     0.619110000000     0.037750000000     0.0437289  
H603     H      0.706290000000     0.638020000000     0.039520000000     0.0316699  
H604     H      0.712890000000     0.615470000000     0.484790000000     0.0496014  
H605     H      0.786310000000     0.676130000000     0.060030000000     0.0377622  
H606     H      0.796410000000     0.650710000000     0.507340000000     0.0424843  
H607     H      0.740190000000     0.648840000000     0.475140000000     0.0528669  
H608     H      0.670710000000     0.699480000000     0.027710000000     0.0371331  
H609     H      0.760560000000     0.573080000000     0.390490000000     0.040288   
H610     H      0.807850000000     0.545830000000     0.414300000000     0.0418906  
H611     H      0.713000000000     0.531300000000     0.393310000000     0.0338997  
H612     H      0.728640000000     0.975970000000     0.414910000000     0.0466813  
H613     H      0.790480000000     0.566870000000     0.359650000000     0.0386341  
H614     H      0.807340000000     0.013480000000     0.383900000000     0.0412998  
H615     H      0.758250000000     0.971710000000     0.383700000000     0.0478475  
H616     H      0.675020000000     0.513670000000     0.341750000000     0.0354122  
H617     H      0.748930000000     0.975630000000     0.153610000000     0.0421792  
H618     H      0.789980000000     0.981980000000     0.111300000000     0.0394421  
H619     H      0.714910000000     0.561290000000     0.163470000000     0.0277921  
H620     H      0.707480000000     0.518480000000     0.122140000000     0.0447064  
H621     H      0.787330000000     0.985870000000     0.170800000000     0.0396212  
H622     H      0.800270000000     0.023230000000     0.125340000000     0.0463481  
H623     H      0.717360000000     0.557430000000     0.103020000000     0.0445435  
H624     H      0.757070000000     0.610600000000     0.168720000000     0.0379676  
H625     H      0.947980000000     0.775850000000     0.362470000000     0.0382437  
H626     H      0.971490000000     0.823840000000     0.391260000000     0.0414081  
H627     H      0.986410000000     0.726220000000     0.363730000000     0.0303676  
H628     H      0.535690000000     0.738950000000     0.392970000000     0.0478831  
H629     H      0.955570000000     0.809780000000     0.334730000000     0.0400741  
H630     H      0.504840000000     0.825470000000     0.363650000000     0.0421249  
H631     H      0.545440000000     0.771790000000     0.365120000000     0.0473238  
H632     H      0.008660000000     0.693550000000     0.308670000000     0.0380972  
H633     H      0.963890000000     0.781850000000     0.105690000000     0.0391049  
H634     H      0.967070000000     0.828490000000     0.142770000000     0.0423823  
H635     H      0.020440000000     0.745980000000     0.110860000000     0.0324819  
H636     H      0.556790000000     0.774900000000     0.147930000000     0.0476948  
H637     H      0.966140000000     0.819760000000     0.082660000000     0.0392088  
H638     H      0.500810000000     0.846070000000     0.121850000000     0.0400191  
H639     H      0.555700000000     0.812680000000     0.124070000000     0.0467894  
H640     H      0.065970000000     0.726260000000     0.070040000000     0.0391019  
H641     H      0.625930000000     0.525860000000     0.209890000000     0.0396488  
H642     H      0.653930000000     0.982300000000     0.240930000000     0.0419922  
H643     H      0.628660000000     0.581050000000     0.239730000000     0.0302435  
H644     H      0.656130000000     0.576680000000     0.291750000000     0.0475557  
H645     H      0.597470000000     0.994300000000     0.222640000000     0.0408472  
H646     H      0.626000000000     0.987090000000     0.273720000000     0.0395171  
H647     H      0.627170000000     0.046070000000     0.304810000000     0.0465569  
H648     H      0.599840000000     0.633540000000     0.262350000000     0.0282693  
H649     H      0.884210000000     0.981860000000     0.291260000000     0.0396683  
H650     H      0.848670000000     0.980230000000     0.245420000000     0.0421404  
H651     H      0.881350000000     0.042740000000     0.316590000000     0.0308289  
H652     H      0.847860000000     0.580370000000     0.284130000000     0.0462994  
H653     H      0.908440000000     0.976200000000     0.256080000000     0.04077    
H654     H      0.872420000000     0.510870000000     0.224570000000     0.0409944  
H655     H      0.873090000000     0.573620000000     0.249520000000     0.0464792  
H656     H      0.924980000000     0.588850000000     0.333490000000     0.0381234  
H657     H      0.548990000000     0.905590000000     0.315200000000     0.0384718  
H658     H      0.560860000000     0.880450000000     0.263830000000     0.043571   
H659     H      0.989140000000     0.901900000000     0.323040000000     0.0297304  
H660     H      0.958270000000     0.883830000000     0.276000000000     0.0482706  
H661     H      0.565100000000     0.938480000000     0.290170000000     0.0313391  
H662     H      0.541700000000     0.914010000000     0.242590000000     0.0448952  
H663     H      0.974320000000     0.917700000000     0.252400000000     0.0546169  
H664     H      0.956240000000     0.962910000000     0.340670000000     0.0429416  
H665     H      0.968340000000     0.649080000000     0.265020000000     0.0439847  
H666     H      0.940360000000     0.688400000000     0.229970000000     0.0427656  
H667     H      0.034670000000     0.645410000000     0.244920000000     0.0351804  
H668     H      0.540010000000     0.686520000000     0.202410000000     0.0456424  
H669     H      0.942140000000     0.625750000000     0.238980000000     0.0346264  
H670     H      0.451930000000     0.664840000000     0.194830000000     0.0409953  
H671     H      0.510990000000     0.665270000000     0.177920000000     0.0432903  
H672     H      0.580930000000     0.625070000000     0.202420000000     0.0282696  
H673     H      0.884440000000     0.812310000000     0.498680000000     0.0410813  
H674     H      0.854700000000     0.790060000000     0.545250000000     0.0426633  
H675     H      0.886010000000     0.767460000000     0.950590000000     0.0302515  
H676     H      0.850590000000     0.721940000000     0.965090000000     0.0478737  
H677     H      0.911060000000     0.804200000000     0.531960000000     0.0367381  
H678     H      0.880270000000     0.753450000000     0.546370000000     0.0410227  
H679     H      0.875420000000     0.710310000000     0.998420000000     0.0449234  
H680     H      0.935410000000     0.735000000000     0.922550000000     0.0366938  
H681     H      0.631580000000     0.800460000000     0.945420000000     0.0390617  
H682     H      0.657560000000     0.747080000000     0.959250000000     0.044519   
H683     H      0.631680000000     0.842250000000     0.993380000000     0.0329325  
H684     H      0.661430000000     0.817420000000     0.537550000000     0.0471073  
H685     H      0.602470000000     0.766970000000     0.945320000000     0.0381027  
H686     H      0.629440000000     0.740410000000     0.491190000000     0.0432742  
H687     H      0.632770000000     0.783690000000     0.541480000000     0.0468788  
H688     H      0.584650000000     0.873840000000     0.525810000000     0.039352   
H689     H      0.800890000000     0.895030000000     0.457670000000     0.0398822  
H690     H      0.814520000000     0.914550000000     0.511610000000     0.0437346  
H691     H      0.739840000000     0.898910000000     0.950500000000     0.0313768  
H692     H      0.711170000000     0.915350000000     0.000030000000     0.0494463  
H693     H      0.817060000000     0.860150000000     0.480130000000     0.0321893  
H694     H      0.792240000000     0.880860000000     0.529490000000     0.0460554  
H695     H      0.728670000000     0.880550000000     0.021210000000     0.0523805  
H696     H      0.704690000000     0.840410000000     0.931720000000     0.0417254  
H697     H      0.758510000000     0.642900000000     0.570290000000     0.0402064  
H698     H      0.802060000000     0.619110000000     0.537750000000     0.043849   
H699     H      0.706290000000     0.638020000000     0.539520000000     0.0315355  
H700     H      0.712890000000     0.615470000000     0.984790000000     0.0496665  
H701     H      0.786310000000     0.676130000000     0.560030000000     0.0377682  
H702     H      0.796410000000     0.650710000000     0.007340000000     0.0420923  
H703     H      0.740190000000     0.648840000000     0.975140000000     0.0527799  
H704     H      0.670710000000     0.699480000000     0.527710000000     0.0371666  
H705     H      0.760560000000     0.573080000000     0.890490000000     0.040368   
H706     H      0.807850000000     0.545830000000     0.914300000000     0.0420334  
H707     H      0.713000000000     0.531300000000     0.893310000000     0.0339919  
H708     H      0.728640000000     0.975970000000     0.914910000000     0.0468006  
H709     H      0.790480000000     0.566870000000     0.859650000000     0.0386594  
H710     H      0.807340000000     0.013480000000     0.883910000000     0.0413662  
H711     H      0.758250000000     0.971710000000     0.883690000000     0.0478756  
H712     H      0.675020000000     0.513670000000     0.841750000000     0.0354333  
H713     H      0.748930000000     0.975630000000     0.653610000000     0.0421844  
H714     H      0.789980000000     0.981980000000     0.611300000000     0.0394611  
H715     H      0.714910000000     0.561290000000     0.663470000000     0.0278024  
H716     H      0.707480000000     0.518480000000     0.622140000000     0.0447339  
H717     H      0.787330000000     0.985870000000     0.670800000000     0.0396252  
H718     H      0.800270000000     0.023230000000     0.625340000000     0.0463727  
H719     H      0.717360000000     0.557430000000     0.603020000000     0.044576   
H720     H      0.757070000000     0.610600000000     0.668730000000     0.0379618  
H721     H      0.947980000000     0.775850000000     0.862470000000     0.0382516  
H722     H      0.971490000000     0.823840000000     0.891260000000     0.0414467  
H723     H      0.986410000000     0.726220000000     0.863730000000     0.03039    
H724     H      0.535690000000     0.738950000000     0.892970000000     0.047917   
H725     H      0.955570000000     0.809780000000     0.834730000000     0.0400811  
H726     H      0.504840000000     0.825470000000     0.863650000000     0.0421466  
H727     H      0.545440000000     0.771790000000     0.865120000000     0.0473343  
H728     H      0.008660000000     0.693550000000     0.808670000000     0.0381008  
H729     H      0.963890000000     0.781850000000     0.605690000000     0.039169   
H730     H      0.967070000000     0.828490000000     0.642770000000     0.0424075  
H731     H      0.020440000000     0.745980000000     0.610860000000     0.032529   
H732     H      0.556790000000     0.774900000000     0.647930000000     0.0476971  
H733     H      0.966140000000     0.819760000000     0.582660000000     0.0393286  
H734     H      0.500810000000     0.846070000000     0.621850000000     0.0400705  
H735     H      0.555700000000     0.812680000000     0.624080000000     0.0468149  
H736     H      0.065970000000     0.726260000000     0.570040000000     0.0392423  
H737     H      0.625930000000     0.525860000000     0.709890000000     0.0396667  
H738     H      0.653930000000     0.982300000000     0.740930000000     0.0420013  
H739     H      0.628660000000     0.581050000000     0.739730000000     0.0302475  
H740     H      0.656130000000     0.576680000000     0.791750000000     0.0475717  
H741     H      0.597470000000     0.994300000000     0.722640000000     0.0408628  
H742     H      0.626000000000     0.987090000000     0.773720000000     0.0395244  
H743     H      0.627170000000     0.046070000000     0.804810000000     0.0465873  
H744     H      0.599840000000     0.633540000000     0.762350000000     0.0282677  
H745     H      0.884210000000     0.981860000000     0.791260000000     0.0396833  
H746     H      0.848670000000     0.980230000000     0.745420000000     0.0421416  
H747     H      0.881350000000     0.042740000000     0.816590000000     0.0308638  
H748     H      0.847860000000     0.580370000000     0.784130000000     0.0463093  
H749     H      0.908440000000     0.976200000000     0.756080000000     0.0407784  
H750     H      0.872420000000     0.510870000000     0.724570000000     0.0410057  
H751     H      0.873090000000     0.573620000000     0.749520000000     0.0464797  
H752     H      0.924980000000     0.588850000000     0.833500000000     0.0381618  
H753     H      0.548990000000     0.905590000000     0.815190000000     0.038511   
H754     H      0.560860000000     0.880450000000     0.763830000000     0.0435712  
H755     H      0.989140000000     0.901900000000     0.823040000000     0.0297562  
H756     H      0.958270000000     0.883830000000     0.776000000000     0.0482738  
H757     H      0.565100000000     0.938480000000     0.790170000000     0.0313619  
H758     H      0.541700000000     0.914010000000     0.742590000000     0.0449046  
H759     H      0.974320000000     0.917700000000     0.752400000000     0.0546267  
H760     H      0.956240000000     0.962910000000     0.840670000000     0.0429886  
H761     H      0.968340000000     0.649080000000     0.765020000000     0.0440116  
H762     H      0.940360000000     0.688400000000     0.729960000000     0.042772   
H763     H      0.034670000000     0.645410000000     0.744920000000     0.0351826  
H764     H      0.540010000000     0.686520000000     0.702410000000     0.0456494  
H765     H      0.942140000000     0.625750000000     0.738980000000     0.0346532  
H766     H      0.451930000000     0.664840000000     0.694830000000     0.0410203  
H767     H      0.510990000000     0.665270000000     0.677920000000     0.043326   
H768     H      0.580930000000     0.625070000000     0.702420000000     0.0282726  
N1       N      0.414220000000     0.269510000000     0.992600000000    -0.173637   
N2       N      0.349410000000     0.254980000000     0.006040000000    -0.169362   
N3       N      0.099900000000     0.301580000000     0.984980000000    -0.174514   
N4       N      0.162140000000     0.279910000000     0.000420000000    -0.16908    
N5       N      0.266170000000     0.359020000000     0.471650000000    -0.17685    
N6       N      0.262610000000     0.417850000000     0.508180000000    -0.168525   
N7       N      0.241180000000     0.176490000000     0.534900000000    -0.176814   
N8       N      0.258930000000     0.114650000000     0.509090000000    -0.169117   
N9       N      0.249360000000     0.533840000000     0.358020000000    -0.176814   
N10      N      0.268940000000     0.010100000000     0.417050000000    -0.170243   
N11      N      0.252280000000     0.525430000000     0.171320000000    -0.177174   
N12      N      0.254560000000     0.520010000000     0.103120000000    -0.169258   
N13      N      0.487860000000     0.267410000000     0.331850000000    -0.17529    
N14      N      0.505750000000     0.283340000000     0.394670000000    -0.168603   
N15      N      0.008550000000     0.288480000000     0.082540000000    -0.174087   
N16      N      0.512320000000     0.302680000000     0.148490000000    -0.168373   
N17      N      0.095350000000     0.041880000000     0.247570000000    -0.175789   
N18      N      0.157620000000     0.028400000000     0.267980000000    -0.170511   
N19      N      0.410620000000     0.025110000000     0.278450000000    -0.175435   
N20      N      0.345550000000     0.031270000000     0.262750000000    -0.169805   
N21      N      0.014470000000     0.440880000000     0.299400000000    -0.17628    
N22      N      0.008880000000     0.380650000000     0.264520000000    -0.167369   
N23      N      0.492340000000     0.121220000000     0.228880000000    -0.172788   
N24      N      0.990430000000     0.190680000000     0.216990000000    -0.169257   
N25      N      0.414220000000     0.269510000000     0.492590000000    -0.174392   
N26      N      0.349410000000     0.254980000000     0.506040000000    -0.168873   
N27      N      0.099900000000     0.301580000000     0.484970000000    -0.175211   
N28      N      0.162140000000     0.279910000000     0.500420000000    -0.168601   
N29      N      0.266170000000     0.359020000000     0.971650000000    -0.177156   
N30      N      0.262610000000     0.417850000000     0.008180000000    -0.168389   
N31      N      0.241180000000     0.176490000000     0.034900000000    -0.176528   
N32      N      0.258930000000     0.114650000000     0.009090000000    -0.169783   
N33      N      0.249360000000     0.533840000000     0.858020000000    -0.176878   
N34      N      0.268940000000     0.010100000000     0.917050000000    -0.170152   
N35      N      0.252280000000     0.525430000000     0.671320000000    -0.177173   
N36      N      0.254560000000     0.520010000000     0.603120000000    -0.169267   
N37      N      0.487860000000     0.267410000000     0.831850000000    -0.175291   
N38      N      0.505750000000     0.283340000000     0.894670000000    -0.168604   
N39      N      0.008550000000     0.288480000000     0.582540000000    -0.174005   
N40      N      0.512320000000     0.302680000000     0.648490000000    -0.168369   
N41      N      0.095350000000     0.041880000000     0.747570000000    -0.175778   
N42      N      0.157620000000     0.028400000000     0.767980000000    -0.170505   
N43      N      0.410620000000     0.025110000000     0.778450000000    -0.175422   
N44      N      0.345550000000     0.031270000000     0.762750000000    -0.169806   
N45      N      0.014470000000     0.440880000000     0.799400000000    -0.176256   
N46      N      0.008880000000     0.380650000000     0.764520000000    -0.167368   
N47      N      0.492340000000     0.121220000000     0.728880000000    -0.172761   
N48      N      0.990430000000     0.190680000000     0.716990000000    -0.169253   
N49      N      0.414220000000     0.769510000000     0.992600000000    -0.173655   
N50      N      0.349410000000     0.754980000000     0.006040000000    -0.169366   
N51      N      0.099900000000     0.801580000000     0.984980000000    -0.174521   
N52      N      0.162140000000     0.779920000000     0.000420000000    -0.169069   
N53      N      0.266170000000     0.859020000000     0.471650000000    -0.17687    
N54      N      0.262610000000     0.917850000000     0.508180000000    -0.168516   
N55      N      0.241180000000     0.676480000000     0.534900000000    -0.176758   
N56      N      0.258930000000     0.614650000000     0.509090000000    -0.169112   
N57      N      0.249360000000     0.033840000000     0.358020000000    -0.176813   
N58      N      0.268940000000     0.510100000000     0.417050000000    -0.170238   
N59      N      0.252280000000     0.025430000000     0.171320000000    -0.177192   
N60      N      0.254560000000     0.020010000000     0.103120000000    -0.169253   
N61      N      0.487860000000     0.767410000000     0.331850000000    -0.175282   
N62      N      0.505750000000     0.783340000000     0.394670000000    -0.168607   
N63      N      0.008550000000     0.788480000000     0.082540000000    -0.174091   
N64      N      0.512320000000     0.802680000000     0.148490000000    -0.168371   
N65      N      0.095350000000     0.541880000000     0.247570000000    -0.175785   
N66      N      0.157620000000     0.528400000000     0.267980000000    -0.170525   
N67      N      0.410620000000     0.525110000000     0.278450000000    -0.17543    
N68      N      0.345550000000     0.531270000000     0.262750000000    -0.169806   
N69      N      0.014470000000     0.940880000000     0.299400000000    -0.176278   
N70      N      0.008880000000     0.880650000000     0.264520000000    -0.167371   
N71      N      0.492340000000     0.621220000000     0.228880000000    -0.172781   
N72      N      0.990430000000     0.690680000000     0.216990000000    -0.169258   
N73      N      0.414220000000     0.769510000000     0.492590000000    -0.17441    
N74      N      0.349410000000     0.754980000000     0.506040000000    -0.168878   
N75      N      0.099900000000     0.801580000000     0.484970000000    -0.175218   
N76      N      0.162140000000     0.779920000000     0.500420000000    -0.168591   
N77      N      0.266170000000     0.859020000000     0.971650000000    -0.177176   
N78      N      0.262610000000     0.917850000000     0.008180000000    -0.16838    
N79      N      0.241180000000     0.676480000000     0.034900000000    -0.176473   
N80      N      0.258930000000     0.614650000000     0.009090000000    -0.169777   
N81      N      0.249360000000     0.033840000000     0.858020000000    -0.176878   
N82      N      0.268940000000     0.510100000000     0.917050000000    -0.170147   
N83      N      0.252280000000     0.025430000000     0.671320000000    -0.177191   
N84      N      0.254560000000     0.020010000000     0.603120000000    -0.169262   
N85      N      0.487860000000     0.767410000000     0.831850000000    -0.175282   
N86      N      0.505750000000     0.783340000000     0.894670000000    -0.168608   
N87      N      0.008550000000     0.788480000000     0.582540000000    -0.174009   
N88      N      0.512320000000     0.802680000000     0.648490000000    -0.168367   
N89      N      0.095350000000     0.541880000000     0.747570000000    -0.175774   
N90      N      0.157620000000     0.528400000000     0.767980000000    -0.170519   
N91      N      0.410620000000     0.525110000000     0.778450000000    -0.175418   
N92      N      0.345550000000     0.531270000000     0.762750000000    -0.169807   
N93      N      0.014470000000     0.940880000000     0.799400000000    -0.176255   
N94      N      0.008880000000     0.880650000000     0.764520000000    -0.167371   
N95      N      0.492340000000     0.621220000000     0.728880000000    -0.172755   
N96      N      0.990430000000     0.690680000000     0.716990000000    -0.169254   
N97      N      0.914220000000     0.269510000000     0.992600000000    -0.173626   
N98      N      0.849410000000     0.254980000000     0.006040000000    -0.169362   
N99      N      0.599910000000     0.301580000000     0.984980000000    -0.174439   
N100     N      0.662140000000     0.279910000000     0.000420000000    -0.169079   
N101     N      0.766170000000     0.359020000000     0.471650000000    -0.176851   
N102     N      0.762610000000     0.417850000000     0.508180000000    -0.168525   
N103     N      0.741180000000     0.176490000000     0.534900000000    -0.176814   
N104     N      0.758930000000     0.114650000000     0.509090000000    -0.169117   
N105     N      0.749360000000     0.533840000000     0.358020000000    -0.176809   
N106     N      0.768940000000     0.010100000000     0.417050000000    -0.170253   
N107     N      0.752280000000     0.525430000000     0.171320000000    -0.177173   
N108     N      0.754570000000     0.520010000000     0.103120000000    -0.169264   
N109     N      0.987860000000     0.267410000000     0.331850000000    -0.175226   
N110     N      0.005750000000     0.283340000000     0.394670000000    -0.168681   
N111     N      0.508550000000     0.288480000000     0.082540000000    -0.174042   
N112     N      0.012320000000     0.302680000000     0.148490000000    -0.168421   
N113     N      0.595350000000     0.041880000000     0.247570000000    -0.175791   
N114     N      0.657620000000     0.028400000000     0.267980000000    -0.170516   
N115     N      0.910620000000     0.025110000000     0.278450000000    -0.175425   
N116     N      0.845550000000     0.031270000000     0.262750000000    -0.169807   
N117     N      0.514470000000     0.440880000000     0.299400000000    -0.176212   
N118     N      0.508880000000     0.380650000000     0.264520000000    -0.167342   
N119     N      0.992340000000     0.121220000000     0.228880000000    -0.172733   
N120     N      0.490430000000     0.190680000000     0.216990000000    -0.169295   
N121     N      0.914220000000     0.269510000000     0.492590000000    -0.174382   
N122     N      0.849410000000     0.254980000000     0.506040000000    -0.168874   
N123     N      0.599910000000     0.301580000000     0.484970000000    -0.175137   
N124     N      0.662140000000     0.279910000000     0.500420000000    -0.1686     
N125     N      0.766170000000     0.359020000000     0.971650000000    -0.177156   
N126     N      0.762610000000     0.417850000000     0.008180000000    -0.168389   
N127     N      0.741180000000     0.176490000000     0.034900000000    -0.176529   
N128     N      0.758930000000     0.114650000000     0.009090000000    -0.169783   
N129     N      0.749360000000     0.533840000000     0.858020000000    -0.176874   
N130     N      0.768940000000     0.010100000000     0.917050000000    -0.170161   
N131     N      0.752280000000     0.525430000000     0.671320000000    -0.177173   
N132     N      0.754570000000     0.520010000000     0.603120000000    -0.169273   
N133     N      0.987860000000     0.267410000000     0.831850000000    -0.175226   
N134     N      0.005750000000     0.283340000000     0.894670000000    -0.168683   
N135     N      0.508550000000     0.288480000000     0.582540000000    -0.173961   
N136     N      0.012320000000     0.302680000000     0.648490000000    -0.168418   
N137     N      0.595350000000     0.041880000000     0.747570000000    -0.17578    
N138     N      0.657620000000     0.028400000000     0.767980000000    -0.17051    
N139     N      0.910620000000     0.025110000000     0.778450000000    -0.175413   
N140     N      0.845550000000     0.031270000000     0.762750000000    -0.169808   
N141     N      0.514470000000     0.440880000000     0.799400000000    -0.176189   
N142     N      0.508880000000     0.380650000000     0.764520000000    -0.167341   
N143     N      0.992340000000     0.121220000000     0.728880000000    -0.172707   
N144     N      0.490430000000     0.190680000000     0.716990000000    -0.169291   
N145     N      0.914220000000     0.769510000000     0.992600000000    -0.173644   
N146     N      0.849410000000     0.754980000000     0.006040000000    -0.169367   
N147     N      0.599910000000     0.801580000000     0.984980000000    -0.174447   
N148     N      0.662140000000     0.779920000000     0.000420000000    -0.169068   
N149     N      0.766170000000     0.859020000000     0.471650000000    -0.17687    
N150     N      0.762610000000     0.917850000000     0.508180000000    -0.168516   
N151     N      0.741180000000     0.676480000000     0.534900000000    -0.176758   
N152     N      0.758930000000     0.614650000000     0.509090000000    -0.169111   
N153     N      0.749360000000     0.033840000000     0.358020000000    -0.176808   
N154     N      0.768940000000     0.510100000000     0.417050000000    -0.170248   
N155     N      0.752280000000     0.025430000000     0.171320000000    -0.177191   
N156     N      0.754570000000     0.020010000000     0.103120000000    -0.169259   
N157     N      0.987860000000     0.767410000000     0.331850000000    -0.175218   
N158     N      0.005750000000     0.783340000000     0.394670000000    -0.168685   
N159     N      0.508550000000     0.788480000000     0.082540000000    -0.174046   
N160     N      0.012320000000     0.802680000000     0.148490000000    -0.168419   
N161     N      0.595350000000     0.541880000000     0.247570000000    -0.175787   
N162     N      0.657620000000     0.528400000000     0.267980000000    -0.17053    
N163     N      0.910620000000     0.525110000000     0.278450000000    -0.175421   
N164     N      0.845550000000     0.531270000000     0.262750000000    -0.169808   
N165     N      0.514470000000     0.940880000000     0.299400000000    -0.176211   
N166     N      0.508880000000     0.880650000000     0.264520000000    -0.167344   
N167     N      0.992340000000     0.621220000000     0.228880000000    -0.172727   
N168     N      0.490430000000     0.690680000000     0.216990000000    -0.169296   
N169     N      0.914220000000     0.769510000000     0.492590000000    -0.1744     
N170     N      0.849410000000     0.754980000000     0.506040000000    -0.168878   
N171     N      0.599910000000     0.801580000000     0.484970000000    -0.175143   
N172     N      0.662140000000     0.779920000000     0.500420000000    -0.16859    
N173     N      0.766170000000     0.859020000000     0.971650000000    -0.177176   
N174     N      0.762610000000     0.917850000000     0.008180000000    -0.16838    
N175     N      0.741180000000     0.676480000000     0.034900000000    -0.176473   
N176     N      0.758930000000     0.614650000000     0.009090000000    -0.169777   
N177     N      0.749360000000     0.033840000000     0.858020000000    -0.176873   
N178     N      0.768940000000     0.510100000000     0.917050000000    -0.170157   
N179     N      0.752280000000     0.025430000000     0.671320000000    -0.177191   
N180     N      0.754570000000     0.020010000000     0.603120000000    -0.169268   
N181     N      0.987860000000     0.767410000000     0.831850000000    -0.175218   
N182     N      0.005750000000     0.783340000000     0.894670000000    -0.168686   
N183     N      0.508550000000     0.788480000000     0.582540000000    -0.173965   
N184     N      0.012320000000     0.802680000000     0.648490000000    -0.168416   
N185     N      0.595350000000     0.541880000000     0.747570000000    -0.175776   
N186     N      0.657620000000     0.528400000000     0.767980000000    -0.170524   
N187     N      0.910620000000     0.525110000000     0.778450000000    -0.175409   
N188     N      0.845550000000     0.531270000000     0.762750000000    -0.169809   
N189     N      0.514470000000     0.940880000000     0.799400000000    -0.176188   
N190     N      0.508880000000     0.880650000000     0.764520000000    -0.167344   
N191     N      0.992340000000     0.621220000000     0.728880000000    -0.1727     
N192     N      0.490430000000     0.690680000000     0.716990000000    -0.169292   
Ni1      Ni     0.500070000000     0.019050000000     0.238060000000     1.00234    
Ni2      Ni     0.506650000000     0.543040000000     0.290110000000     1.00612    
Ni3      Ni     0.028330000000     0.281550000000     0.243110000000     0.993027   
Ni4      Ni     0.471840000000     0.289750000000     0.237570000000     0.998275   
Ni5      Ni     0.251150000000     0.059690000000     0.263970000000     1.00245    
Ni6      Ni     0.251940000000     0.499800000000     0.265570000000     1.00975    
Ni7      Ni     0.233030000000     0.015650000000     0.507720000000     1.01192    
Ni8      Ni     0.290010000000     0.016900000000     0.012260000000     0.994528   
Ni9      Ni     0.012150000000     0.256190000000     0.988940000000     0.998267   
Ni10     Ni     0.001980000000     0.315230000000     0.488430000000     0.995492   
Ni11     Ni     0.255110000000     0.257170000000     0.476480000000     1.00304    
Ni12     Ni     0.256450000000     0.277900000000     0.030120000000     0.997873   
Ni13     Ni     0.500070000000     0.019050000000     0.738070000000     1.00228    
Ni14     Ni     0.506650000000     0.543040000000     0.790110000000     1.00602    
Ni15     Ni     0.028330000000     0.281550000000     0.743110000000     0.993017   
Ni16     Ni     0.471840000000     0.289750000000     0.737570000000     0.998273   
Ni17     Ni     0.251150000000     0.059690000000     0.763970000000     1.00245    
Ni18     Ni     0.251940000000     0.499800000000     0.765570000000     1.00972    
Ni19     Ni     0.233030000000     0.015650000000     0.007720000000     1.01076    
Ni20     Ni     0.290010000000     0.016900000000     0.512260000000     0.99563    
Ni21     Ni     0.012150000000     0.256190000000     0.488940000000     0.996872   
Ni22     Ni     0.001980000000     0.315230000000     0.988430000000     0.996669   
Ni23     Ni     0.255110000000     0.257170000000     0.976480000000     1.00388    
Ni24     Ni     0.256450000000     0.277900000000     0.530120000000     0.999018   
Ni25     Ni     0.500070000000     0.519050000000     0.238060000000     1.00234    
Ni26     Ni     0.506650000000     0.043040000000     0.290110000000     1.00611    
Ni27     Ni     0.028330000000     0.781550000000     0.243110000000     0.992978   
Ni28     Ni     0.471840000000     0.789750000000     0.237570000000     0.998278   
Ni29     Ni     0.251150000000     0.559690000000     0.263970000000     1.00246    
Ni30     Ni     0.251940000000     0.999800000000     0.265570000000     1.00977    
Ni31     Ni     0.233030000000     0.515650000000     0.507720000000     1.01192    
Ni32     Ni     0.290010000000     0.516890000000     0.012260000000     0.994536   
Ni33     Ni     0.012150000000     0.756190000000     0.988940000000     0.998302   
Ni34     Ni     0.001980000000     0.815230000000     0.488430000000     0.995455   
Ni35     Ni     0.255110000000     0.757170000000     0.476480000000     1.00307    
Ni36     Ni     0.256450000000     0.777900000000     0.030120000000     0.997884   
Ni37     Ni     0.500070000000     0.519050000000     0.738070000000     1.00228    
Ni38     Ni     0.506650000000     0.043040000000     0.790110000000     1.00602    
Ni39     Ni     0.028330000000     0.781550000000     0.743110000000     0.992967   
Ni40     Ni     0.471840000000     0.789750000000     0.737570000000     0.998276   
Ni41     Ni     0.251150000000     0.559690000000     0.763970000000     1.00246    
Ni42     Ni     0.251940000000     0.999800000000     0.765570000000     1.00974    
Ni43     Ni     0.233030000000     0.515650000000     0.007720000000     1.01077    
Ni44     Ni     0.290010000000     0.516890000000     0.512260000000     0.995637   
Ni45     Ni     0.012150000000     0.756190000000     0.488940000000     0.996907   
Ni46     Ni     0.001980000000     0.815230000000     0.988430000000     0.996632   
Ni47     Ni     0.255110000000     0.757170000000     0.976480000000     1.0039     
Ni48     Ni     0.256450000000     0.777900000000     0.530120000000     0.999028   
Ni49     Ni     0.000070000000     0.019050000000     0.238060000000     1.00213    
Ni50     Ni     0.006650000000     0.543040000000     0.290110000000     1.00591    
Ni51     Ni     0.528330000000     0.281550000000     0.243110000000     0.993124   
Ni52     Ni     0.971840000000     0.289750000000     0.237570000000     0.998376   
Ni53     Ni     0.751150000000     0.059690000000     0.263970000000     1.00224    
Ni54     Ni     0.751940000000     0.499800000000     0.265570000000     1.00978    
Ni55     Ni     0.733030000000     0.015650000000     0.507720000000     1.01192    
Ni56     Ni     0.790010000000     0.016900000000     0.012260000000     0.994534   
Ni57     Ni     0.512150000000     0.256190000000     0.988940000000     0.998368   
Ni58     Ni     0.501980000000     0.315230000000     0.488430000000     0.995605   
Ni59     Ni     0.755110000000     0.257170000000     0.476480000000     1.00304    
Ni60     Ni     0.756450000000     0.277900000000     0.030120000000     0.997871   
Ni61     Ni     0.000070000000     0.019050000000     0.738070000000     1.00207    
Ni62     Ni     0.006650000000     0.543040000000     0.790110000000     1.00581    
Ni63     Ni     0.528330000000     0.281550000000     0.743110000000     0.993114   
Ni64     Ni     0.971840000000     0.289750000000     0.737570000000     0.998375   
Ni65     Ni     0.751150000000     0.059690000000     0.763970000000     1.00224    
Ni66     Ni     0.751940000000     0.499800000000     0.765570000000     1.00975    
Ni67     Ni     0.733030000000     0.015650000000     0.007720000000     1.01076    
Ni68     Ni     0.790010000000     0.016900000000     0.512260000000     0.995636   
Ni69     Ni     0.512150000000     0.256190000000     0.488940000000     0.996972   
Ni70     Ni     0.501980000000     0.315230000000     0.988430000000     0.996783   
Ni71     Ni     0.755110000000     0.257170000000     0.976480000000     1.00387    
Ni72     Ni     0.756450000000     0.277900000000     0.530120000000     0.999016   
Ni73     Ni     0.000070000000     0.519050000000     0.238060000000     1.00214    
Ni74     Ni     0.006650000000     0.043040000000     0.290110000000     1.0059     
Ni75     Ni     0.528330000000     0.781550000000     0.243110000000     0.993074   
Ni76     Ni     0.971840000000     0.789750000000     0.237570000000     0.99838    
Ni77     Ni     0.751150000000     0.559690000000     0.263970000000     1.00225    
Ni78     Ni     0.751940000000     0.999800000000     0.265570000000     1.00981    
Ni79     Ni     0.733030000000     0.515650000000     0.507720000000     1.01192    
Ni80     Ni     0.790010000000     0.516890000000     0.012260000000     0.994542   
Ni81     Ni     0.512150000000     0.756190000000     0.988940000000     0.998403   
Ni82     Ni     0.501980000000     0.815230000000     0.488430000000     0.995569   
Ni83     Ni     0.755110000000     0.757170000000     0.476480000000     1.00307    
Ni84     Ni     0.756450000000     0.777900000000     0.030120000000     0.997881   
Ni85     Ni     0.000070000000     0.519050000000     0.738070000000     1.00208    
Ni86     Ni     0.006650000000     0.043040000000     0.790110000000     1.00581    
Ni87     Ni     0.528330000000     0.781550000000     0.743110000000     0.993064   
Ni88     Ni     0.971840000000     0.789750000000     0.737570000000     0.998379   
Ni89     Ni     0.751150000000     0.559690000000     0.763970000000     1.00225    
Ni90     Ni     0.751940000000     0.999800000000     0.765570000000     1.00978    
Ni91     Ni     0.733030000000     0.515650000000     0.007720000000     1.01077    
Ni92     Ni     0.790010000000     0.516890000000     0.512260000000     0.995643   
Ni93     Ni     0.512150000000     0.756190000000     0.488940000000     0.997008   
Ni94     Ni     0.501980000000     0.815230000000     0.988430000000     0.996746   
Ni95     Ni     0.755110000000     0.757170000000     0.976480000000     1.0039     
Ni96     Ni     0.756450000000     0.777900000000     0.530120000000     0.999027   
O1       O      0.994120000000     0.064200000000     0.222500000000    -0.44349    
O2       O      0.506680000000     0.475800000000     0.256880000000    -0.452608   
O3       O      0.455010000000     0.015660000000     0.247420000000    -0.450514   
O4       O      0.045540000000     0.523610000000     0.232450000000    -0.451309   
O5       O      0.051500000000     0.047120000000     0.280500000000    -0.449381   
O6       O      0.461260000000     0.538460000000     0.295780000000    -0.451871   
O7       O      0.013200000000     0.497910000000     0.305580000000    -0.447312   
O8       O      0.499560000000     0.086240000000     0.271390000000    -0.451324   
O9       O      0.032490000000     0.291510000000     0.198450000000    -0.448989   
O10      O      0.020360000000     0.271040000000     0.287440000000    -0.444311   
O11      O      0.021730000000     0.235440000000     0.231790000000    -0.449524   
O12      O      0.031220000000     0.328770000000     0.253610000000    -0.444848   
O13      O      0.478460000000     0.335940000000     0.247940000000    -0.451986   
O14      O      0.468740000000     0.242490000000     0.228150000000    -0.448601   
O15      O      0.467830000000     0.280610000000     0.282450000000    -0.449558   
O16      O      0.479750000000     0.299220000000     0.192930000000    -0.446134   
O17      O      0.253960000000     0.059620000000     0.309600000000    -0.453084   
O18      O      0.248320000000     0.055630000000     0.218050000000    -0.449398   
O19      O      0.205350000000     0.056940000000     0.267140000000    -0.453429   
O20      O      0.297070000000     0.058390000000     0.261970000000    -0.452176   
O21      O      0.297950000000     0.502550000000     0.266400000000    -0.451578   
O22      O      0.205880000000     0.501050000000     0.263780000000    -0.45118    
O23      O      0.253940000000     0.499940000000     0.220110000000    -0.457374   
O24      O      0.249760000000     0.503770000000     0.311290000000    -0.450879   
O25      O      0.238710000000     0.510760000000     0.462620000000    -0.455191   
O26      O      0.231330000000     0.020420000000     0.053420000000    -0.451304   
O27      O      0.234400000000     0.063470000000     0.503730000000    -0.454545   
O28      O      0.235470000000     0.467870000000     0.011400000000    -0.453861   
O29      O      0.288960000000     0.468630000000     0.510590000000    -0.448643   
O30      O      0.286900000000     0.065090000000     0.013930000000    -0.447787   
O31      O      0.284510000000     0.514980000000     0.057610000000    -0.451646   
O32      O      0.291640000000     0.018590000000     0.466320000000    -0.449167   
O33      O      0.513460000000     0.259540000000     0.035070000000    -0.44582    
O34      O      0.011200000000     0.257010000000     0.443120000000    -0.449505   
O35      O      0.057010000000     0.266070000000     0.987060000000    -0.451657   
O36      O      0.466170000000     0.250050000000     0.489870000000    -0.443585   
O37      O      0.457070000000     0.305260000000     0.989890000000    -0.451041   
O38      O      0.048060000000     0.321330000000     0.488020000000    -0.444115   
O39      O      0.501060000000     0.312000000000     0.442300000000    -0.445786   
O40      O      0.002510000000     0.314410000000     0.034200000000    -0.449774   
O41      O      0.209690000000     0.264690000000     0.476850000000    -0.450423   
O42      O      0.300850000000     0.250320000000     0.479950000000    -0.448104   
O43      O      0.247550000000     0.213480000000     0.493720000000    -0.453604   
O44      O      0.261960000000     0.302660000000     0.462620000000    -0.44932    
O45      O      0.262100000000     0.321900000000     0.012850000000    -0.45625    
O46      O      0.251140000000     0.232130000000     0.044000000000    -0.448694   
O47      O      0.302080000000     0.271670000000     0.029230000000    -0.450892   
O48      O      0.210480000000     0.283480000000     0.027090000000    -0.44625    
O49      O      0.994120000000     0.064200000000     0.722500000000    -0.443393   
O50      O      0.506680000000     0.475800000000     0.756880000000    -0.452617   
O51      O      0.455010000000     0.015660000000     0.747420000000    -0.450494   
O52      O      0.045540000000     0.523610000000     0.732450000000    -0.451246   
O53      O      0.051500000000     0.047120000000     0.780500000000    -0.449343   
O54      O      0.461260000000     0.538460000000     0.795780000000    -0.451834   
O55      O      0.013200000000     0.497910000000     0.805580000000    -0.447262   
O56      O      0.499560000000     0.086240000000     0.771390000000    -0.451291   
O57      O      0.032490000000     0.291510000000     0.698450000000    -0.448988   
O58      O      0.020360000000     0.271040000000     0.787440000000    -0.444312   
O59      O      0.021730000000     0.235440000000     0.731790000000    -0.449525   
O60      O      0.031220000000     0.328770000000     0.753610000000    -0.444847   
O61      O      0.478460000000     0.335940000000     0.747940000000    -0.451984   
O62      O      0.468740000000     0.242490000000     0.728150000000    -0.448598   
O63      O      0.467830000000     0.280610000000     0.782450000000    -0.449559   
O64      O      0.479750000000     0.299220000000     0.692930000000    -0.446127   
O65      O      0.253960000000     0.059620000000     0.809600000000    -0.452988   
O66      O      0.248320000000     0.055630000000     0.718050000000    -0.449401   
O67      O      0.205350000000     0.056940000000     0.767140000000    -0.453419   
O68      O      0.297070000000     0.058390000000     0.761970000000    -0.452182   
O69      O      0.297950000000     0.502550000000     0.766400000000    -0.451562   
O70      O      0.205880000000     0.501050000000     0.763770000000    -0.45116    
O71      O      0.253940000000     0.499940000000     0.720110000000    -0.457365   
O72      O      0.249760000000     0.503770000000     0.811290000000    -0.450809   
O73      O      0.238710000000     0.510760000000     0.962620000000    -0.454284   
O74      O      0.231330000000     0.020420000000     0.553420000000    -0.451481   
O75      O      0.234400000000     0.063470000000     0.003730000000    -0.454799   
O76      O      0.235470000000     0.467870000000     0.511390000000    -0.453856   
O77      O      0.288960000000     0.468630000000     0.010590000000    -0.448713   
O78      O      0.286900000000     0.065090000000     0.513930000000    -0.447716   
O79      O      0.284510000000     0.514980000000     0.557610000000    -0.451825   
O80      O      0.291640000000     0.018590000000     0.966320000000    -0.448232   
O81      O      0.513460000000     0.259540000000     0.535070000000    -0.4449     
O82      O      0.011200000000     0.257010000000     0.943130000000    -0.44975    
O83      O      0.057010000000     0.266070000000     0.487060000000    -0.451767   
O84      O      0.466170000000     0.250050000000     0.989870000000    -0.443471   
O85      O      0.457070000000     0.305260000000     0.489890000000    -0.451254   
O86      O      0.048060000000     0.321330000000     0.988020000000    -0.443865   
O87      O      0.501060000000     0.312000000000     0.942300000000    -0.445925   
O88      O      0.002510000000     0.314410000000     0.534200000000    -0.448887   
O89      O      0.209690000000     0.264690000000     0.976850000000    -0.44944    
O90      O      0.300850000000     0.250320000000     0.979950000000    -0.44711    
O91      O      0.247550000000     0.213480000000     0.993720000000    -0.452411   
O92      O      0.261960000000     0.302660000000     0.962620000000    -0.44957    
O93      O      0.262100000000     0.321900000000     0.512850000000    -0.455137   
O94      O      0.251140000000     0.232130000000     0.544000000000    -0.449063   
O95      O      0.302080000000     0.271670000000     0.529230000000    -0.451185   
O96      O      0.210480000000     0.283480000000     0.527090000000    -0.446561   
O97      O      0.994120000000     0.564200000000     0.222500000000    -0.44349    
O98      O      0.506680000000     0.975800000000     0.256880000000    -0.452603   
O99      O      0.455010000000     0.515660000000     0.247420000000    -0.450512   
O100     O      0.045540000000     0.023610000000     0.232450000000    -0.451311   
O101     O      0.051500000000     0.547120000000     0.280500000000    -0.44938    
O102     O      0.461260000000     0.038460000000     0.295780000000    -0.451872   
O103     O      0.013200000000     0.997910000000     0.305580000000    -0.447305   
O104     O      0.499560000000     0.586240000000     0.271390000000    -0.451326   
O105     O      0.032490000000     0.791510000000     0.198450000000    -0.44898    
O106     O      0.020360000000     0.771030000000     0.287440000000    -0.444268   
O107     O      0.021730000000     0.735440000000     0.231790000000    -0.449507   
O108     O      0.031220000000     0.828770000000     0.253610000000    -0.444853   
O109     O      0.478460000000     0.835940000000     0.247940000000    -0.451989   
O110     O      0.468740000000     0.742490000000     0.228150000000    -0.448601   
O111     O      0.467830000000     0.780610000000     0.282450000000    -0.449553   
O112     O      0.479750000000     0.799220000000     0.192930000000    -0.446133   
O113     O      0.253960000000     0.559620000000     0.309600000000    -0.453085   
O114     O      0.248320000000     0.555630000000     0.218050000000    -0.449399   
O115     O      0.205350000000     0.556940000000     0.267140000000    -0.453431   
O116     O      0.297070000000     0.558390000000     0.261970000000    -0.452176   
O117     O      0.297950000000     0.002550000000     0.266400000000    -0.451587   
O118     O      0.205880000000     0.001050000000     0.263780000000    -0.451189   
O119     O      0.253940000000     0.999940000000     0.220110000000    -0.45737    
O120     O      0.249760000000     0.003770000000     0.311290000000    -0.450888   
O121     O      0.238710000000     0.010760000000     0.462620000000    -0.455194   
O122     O      0.231330000000     0.520420000000     0.053420000000    -0.451304   
O123     O      0.234400000000     0.563470000000     0.503730000000    -0.45453    
O124     O      0.235470000000     0.967870000000     0.011400000000    -0.453838   
O125     O      0.288960000000     0.968630000000     0.510590000000    -0.448526   
O126     O      0.286900000000     0.565090000000     0.013930000000    -0.447677   
O127     O      0.284510000000     0.014980000000     0.057610000000    -0.451641   
O128     O      0.291640000000     0.518590000000     0.466320000000    -0.44916    
O129     O      0.513460000000     0.759540000000     0.035070000000    -0.445823   
O130     O      0.011200000000     0.757010000000     0.443120000000    -0.449508   
O131     O      0.057010000000     0.766070000000     0.987060000000    -0.451663   
O132     O      0.466170000000     0.750050000000     0.489870000000    -0.443668   
O133     O      0.457070000000     0.805260000000     0.989890000000    -0.450931   
O134     O      0.048060000000     0.821330000000     0.488020000000    -0.44411    
O135     O      0.501060000000     0.812000000000     0.442300000000    -0.445784   
O136     O      0.002510000000     0.814410000000     0.034200000000    -0.44977    
O137     O      0.209690000000     0.764690000000     0.476850000000    -0.45042    
O138     O      0.300850000000     0.750320000000     0.479950000000    -0.448111   
O139     O      0.247550000000     0.713490000000     0.493720000000    -0.453664   
O140     O      0.261960000000     0.802670000000     0.462620000000    -0.449351   
O141     O      0.262100000000     0.821900000000     0.012850000000    -0.456299   
O142     O      0.251140000000     0.732130000000     0.044000000000    -0.448665   
O143     O      0.302080000000     0.771670000000     0.029230000000    -0.450894   
O144     O      0.210480000000     0.783480000000     0.027090000000    -0.446245   
O145     O      0.994120000000     0.564200000000     0.722500000000    -0.443393   
O146     O      0.506680000000     0.975800000000     0.756880000000    -0.452613   
O147     O      0.455010000000     0.515660000000     0.747420000000    -0.450492   
O148     O      0.045540000000     0.023610000000     0.732450000000    -0.451248   
O149     O      0.051500000000     0.547120000000     0.780500000000    -0.449343   
O150     O      0.461260000000     0.038460000000     0.795780000000    -0.451835   
O151     O      0.013200000000     0.997910000000     0.805580000000    -0.447256   
O152     O      0.499560000000     0.586240000000     0.771390000000    -0.451292   
O153     O      0.032490000000     0.791510000000     0.698450000000    -0.448979   
O154     O      0.020360000000     0.771030000000     0.787440000000    -0.44427    
O155     O      0.021730000000     0.735440000000     0.731790000000    -0.449508   
O156     O      0.031220000000     0.828770000000     0.753610000000    -0.444852   
O157     O      0.478460000000     0.835940000000     0.747940000000    -0.451987   
O158     O      0.468740000000     0.742490000000     0.728150000000    -0.448598   
O159     O      0.467830000000     0.780610000000     0.782450000000    -0.449554   
O160     O      0.479750000000     0.799220000000     0.692930000000    -0.446126   
O161     O      0.253960000000     0.559620000000     0.809600000000    -0.452989   
O162     O      0.248320000000     0.555630000000     0.718050000000    -0.449401   
O163     O      0.205350000000     0.556940000000     0.767140000000    -0.453421   
O164     O      0.297070000000     0.558390000000     0.761970000000    -0.452183   
O165     O      0.297950000000     0.002550000000     0.766400000000    -0.451571   
O166     O      0.205880000000     0.001050000000     0.763770000000    -0.451168   
O167     O      0.253940000000     0.999940000000     0.720110000000    -0.457362   
O168     O      0.249760000000     0.003770000000     0.811290000000    -0.450816   
O169     O      0.238710000000     0.010760000000     0.962620000000    -0.454286   
O170     O      0.231330000000     0.520420000000     0.553420000000    -0.451481   
O171     O      0.234400000000     0.563470000000     0.003730000000    -0.454784   
O172     O      0.235470000000     0.967870000000     0.511390000000    -0.453834   
O173     O      0.288960000000     0.968630000000     0.010590000000    -0.448594   
O174     O      0.286900000000     0.565090000000     0.513930000000    -0.447605   
O175     O      0.284510000000     0.014980000000     0.557610000000    -0.451821   
O176     O      0.291640000000     0.518590000000     0.966320000000    -0.448227   
O177     O      0.513460000000     0.759540000000     0.535070000000    -0.444903   
O178     O      0.011200000000     0.757010000000     0.943130000000    -0.449753   
O179     O      0.057010000000     0.766070000000     0.487060000000    -0.451773   
O180     O      0.466170000000     0.750050000000     0.989870000000    -0.443554   
O181     O      0.457070000000     0.805260000000     0.489890000000    -0.451144   
O182     O      0.048060000000     0.821330000000     0.988020000000    -0.443861   
O183     O      0.501060000000     0.812000000000     0.942300000000    -0.445922   
O184     O      0.002510000000     0.814410000000     0.534200000000    -0.448884   
O185     O      0.209690000000     0.764690000000     0.976850000000    -0.449438   
O186     O      0.300850000000     0.750320000000     0.979950000000    -0.447117   
O187     O      0.247550000000     0.713490000000     0.993720000000    -0.452471   
O188     O      0.261960000000     0.802670000000     0.962620000000    -0.4496     
O189     O      0.262100000000     0.821900000000     0.512850000000    -0.455187   
O190     O      0.251140000000     0.732130000000     0.544000000000    -0.449033   
O191     O      0.302080000000     0.771670000000     0.529230000000    -0.451187   
O192     O      0.210480000000     0.783480000000     0.527090000000    -0.446555   
O193     O      0.494120000000     0.064200000000     0.222500000000    -0.443606   
O194     O      0.006680000000     0.475800000000     0.256880000000    -0.45261    
O195     O      0.955010000000     0.015660000000     0.247420000000    -0.450427   
O196     O      0.545540000000     0.523610000000     0.232450000000    -0.451335   
O197     O      0.551500000000     0.047120000000     0.280500000000    -0.449408   
O198     O      0.961260000000     0.538460000000     0.295780000000    -0.451783   
O199     O      0.513200000000     0.497910000000     0.305580000000    -0.447315   
O200     O      0.999560000000     0.086240000000     0.271390000000    -0.451187   
O201     O      0.532490000000     0.291510000000     0.198450000000    -0.449019   
O202     O      0.520360000000     0.271040000000     0.287440000000    -0.444224   
O203     O      0.521730000000     0.235440000000     0.231790000000    -0.449434   
O204     O      0.531220000000     0.328770000000     0.253610000000    -0.444877   
O205     O      0.978460000000     0.335940000000     0.247940000000    -0.451893   
O206     O      0.968740000000     0.242490000000     0.228150000000    -0.448628   
O207     O      0.967830000000     0.280610000000     0.282450000000    -0.449587   
O208     O      0.979750000000     0.299220000000     0.192930000000    -0.446041   
O209     O      0.753960000000     0.059620000000     0.309600000000    -0.453062   
O210     O      0.748320000000     0.055630000000     0.218050000000    -0.449376   
O211     O      0.705340000000     0.056940000000     0.267140000000    -0.453363   
O212     O      0.797070000000     0.058390000000     0.261970000000    -0.452142   
O213     O      0.797950000000     0.502550000000     0.266400000000    -0.451581   
O214     O      0.705880000000     0.501050000000     0.263780000000    -0.451212   
O215     O      0.753940000000     0.499940000000     0.220110000000    -0.457377   
O216     O      0.749760000000     0.503770000000     0.311290000000    -0.450883   
O217     O      0.738710000000     0.510760000000     0.462620000000    -0.455192   
O218     O      0.731330000000     0.020420000000     0.053420000000    -0.45131    
O219     O      0.734400000000     0.063470000000     0.503730000000    -0.454545   
O220     O      0.735470000000     0.467870000000     0.011400000000    -0.453861   
O221     O      0.788960000000     0.468630000000     0.510590000000    -0.448642   
O222     O      0.786900000000     0.065090000000     0.013930000000    -0.447786   
O223     O      0.784510000000     0.514980000000     0.057610000000    -0.451642   
O224     O      0.791640000000     0.018590000000     0.466320000000    -0.449165   
O225     O      0.013460000000     0.259540000000     0.035070000000    -0.445828   
O226     O      0.511200000000     0.257010000000     0.443120000000    -0.449491   
O227     O      0.557010000000     0.266070000000     0.987060000000    -0.451645   
O228     O      0.966170000000     0.250050000000     0.489870000000    -0.443496   
O229     O      0.957070000000     0.305260000000     0.989890000000    -0.450955   
O230     O      0.548060000000     0.321330000000     0.488020000000    -0.444102   
O231     O      0.001060000000     0.312000000000     0.442300000000    -0.445811   
O232     O      0.502510000000     0.314410000000     0.034200000000    -0.449753   
O233     O      0.709690000000     0.264690000000     0.476850000000    -0.450423   
O234     O      0.800850000000     0.250320000000     0.479950000000    -0.448104   
O235     O      0.747550000000     0.213480000000     0.493720000000    -0.453604   
O236     O      0.761960000000     0.302660000000     0.462620000000    -0.44932    
O237     O      0.762100000000     0.321900000000     0.012850000000    -0.45625    
O238     O      0.751140000000     0.232130000000     0.044000000000    -0.448695   
O239     O      0.802080000000     0.271670000000     0.029230000000    -0.450891   
O240     O      0.710480000000     0.283480000000     0.027090000000    -0.446251   
O241     O      0.494120000000     0.064200000000     0.722500000000    -0.443509   
O242     O      0.006680000000     0.475800000000     0.756880000000    -0.452619   
O243     O      0.955010000000     0.015660000000     0.747420000000    -0.450407   
O244     O      0.545540000000     0.523610000000     0.732450000000    -0.451272   
O245     O      0.551500000000     0.047120000000     0.780500000000    -0.449371   
O246     O      0.961260000000     0.538460000000     0.795780000000    -0.451746   
O247     O      0.513200000000     0.497910000000     0.805580000000    -0.447265   
O248     O      0.999560000000     0.086240000000     0.771390000000    -0.451154   
O249     O      0.532490000000     0.291510000000     0.698450000000    -0.449018   
O250     O      0.520360000000     0.271040000000     0.787440000000    -0.444225   
O251     O      0.521730000000     0.235440000000     0.731790000000    -0.449434   
O252     O      0.531220000000     0.328770000000     0.753610000000    -0.444877   
O253     O      0.978460000000     0.335940000000     0.747940000000    -0.451891   
O254     O      0.968740000000     0.242490000000     0.728150000000    -0.448626   
O255     O      0.967830000000     0.280610000000     0.782450000000    -0.449588   
O256     O      0.979750000000     0.299220000000     0.692930000000    -0.446033   
O257     O      0.753960000000     0.059620000000     0.809600000000    -0.452966   
O258     O      0.748320000000     0.055630000000     0.718050000000    -0.449378   
O259     O      0.705340000000     0.056940000000     0.767140000000    -0.453353   
O260     O      0.797070000000     0.058390000000     0.761970000000    -0.452148   
O261     O      0.797950000000     0.502550000000     0.766400000000    -0.451565   
O262     O      0.705880000000     0.501050000000     0.763770000000    -0.451192   
O263     O      0.753940000000     0.499940000000     0.720110000000    -0.457369   
O264     O      0.749760000000     0.503770000000     0.811290000000    -0.450812   
O265     O      0.738710000000     0.510760000000     0.962620000000    -0.454285   
O266     O      0.731330000000     0.020420000000     0.553420000000    -0.451487   
O267     O      0.734400000000     0.063470000000     0.003730000000    -0.454799   
O268     O      0.735470000000     0.467870000000     0.511390000000    -0.453856   
O269     O      0.788960000000     0.468630000000     0.010590000000    -0.448711   
O270     O      0.786900000000     0.065090000000     0.513930000000    -0.447714   
O271     O      0.784510000000     0.514980000000     0.557610000000    -0.451821   
O272     O      0.791640000000     0.018590000000     0.966320000000    -0.448231   
O273     O      0.013460000000     0.259540000000     0.535070000000    -0.444908   
O274     O      0.511200000000     0.257010000000     0.943130000000    -0.449736   
O275     O      0.557010000000     0.266070000000     0.487060000000    -0.451755   
O276     O      0.966170000000     0.250050000000     0.989870000000    -0.443382   
O277     O      0.957070000000     0.305260000000     0.489890000000    -0.451168   
O278     O      0.548060000000     0.321330000000     0.988020000000    -0.443852   
O279     O      0.001060000000     0.312000000000     0.942300000000    -0.44595    
O280     O      0.502510000000     0.314410000000     0.534200000000    -0.448866   
O281     O      0.709690000000     0.264690000000     0.976850000000    -0.44944    
O282     O      0.800850000000     0.250320000000     0.979950000000    -0.447109   
O283     O      0.747550000000     0.213480000000     0.993720000000    -0.452411   
O284     O      0.761960000000     0.302660000000     0.962620000000    -0.44957    
O285     O      0.762100000000     0.321900000000     0.512850000000    -0.455138   
O286     O      0.751140000000     0.232130000000     0.544000000000    -0.449064   
O287     O      0.802080000000     0.271670000000     0.529230000000    -0.451185   
O288     O      0.710480000000     0.283480000000     0.527090000000    -0.446561   
O289     O      0.494120000000     0.564200000000     0.222500000000    -0.443606   
O290     O      0.006680000000     0.975800000000     0.256880000000    -0.452605   
O291     O      0.955010000000     0.515660000000     0.247420000000    -0.450426   
O292     O      0.545540000000     0.023610000000     0.232450000000    -0.451336   
O293     O      0.551500000000     0.547120000000     0.280500000000    -0.449408   
O294     O      0.961260000000     0.038460000000     0.295780000000    -0.451783   
O295     O      0.513200000000     0.997910000000     0.305580000000    -0.447309   
O296     O      0.999560000000     0.586240000000     0.271390000000    -0.451188   
O297     O      0.532490000000     0.791510000000     0.198450000000    -0.44901    
O298     O      0.520360000000     0.771030000000     0.287440000000    -0.444181   
O299     O      0.521730000000     0.735440000000     0.231790000000    -0.449418   
O300     O      0.531220000000     0.828770000000     0.253610000000    -0.444882   
O301     O      0.978460000000     0.835940000000     0.247940000000    -0.451896   
O302     O      0.968740000000     0.742490000000     0.228150000000    -0.448628   
O303     O      0.967830000000     0.780610000000     0.282450000000    -0.449582   
O304     O      0.979750000000     0.799220000000     0.192930000000    -0.44604    
O305     O      0.753960000000     0.559620000000     0.309600000000    -0.453063   
O306     O      0.748320000000     0.555630000000     0.218050000000    -0.449377   
O307     O      0.705340000000     0.556940000000     0.267140000000    -0.453365   
O308     O      0.797070000000     0.558390000000     0.261970000000    -0.452142   
O309     O      0.797950000000     0.002550000000     0.266400000000    -0.45159    
O310     O      0.705880000000     0.001050000000     0.263780000000    -0.451221   
O311     O      0.753940000000     0.999940000000     0.220110000000    -0.457373   
O312     O      0.749760000000     0.003770000000     0.311290000000    -0.450892   
O313     O      0.738710000000     0.010760000000     0.462620000000    -0.455195   
O314     O      0.731330000000     0.520420000000     0.053420000000    -0.45131    
O315     O      0.734400000000     0.563470000000     0.503730000000    -0.454529   
O316     O      0.735470000000     0.967870000000     0.011400000000    -0.453838   
O317     O      0.788960000000     0.968630000000     0.510590000000    -0.448524   
O318     O      0.786900000000     0.565090000000     0.013930000000    -0.447675   
O319     O      0.784510000000     0.014980000000     0.057610000000    -0.451638   
O320     O      0.791640000000     0.518590000000     0.466320000000    -0.449159   
O321     O      0.013460000000     0.759540000000     0.035070000000    -0.445831   
O322     O      0.511200000000     0.757010000000     0.443120000000    -0.449494   
O323     O      0.557010000000     0.766070000000     0.987060000000    -0.451651   
O324     O      0.966170000000     0.750050000000     0.489870000000    -0.443579   
O325     O      0.957070000000     0.805260000000     0.989890000000    -0.450845   
O326     O      0.548060000000     0.821330000000     0.488020000000    -0.444097   
O327     O      0.001060000000     0.812000000000     0.442300000000    -0.445808   
O328     O      0.502510000000     0.814410000000     0.034200000000    -0.44975    
O329     O      0.709690000000     0.764690000000     0.476850000000    -0.450421   
O330     O      0.800850000000     0.750320000000     0.479950000000    -0.448112   
O331     O      0.747550000000     0.713490000000     0.493720000000    -0.453664   
O332     O      0.761960000000     0.802670000000     0.462620000000    -0.449351   
O333     O      0.762100000000     0.821900000000     0.012850000000    -0.456299   
O334     O      0.751140000000     0.732130000000     0.044000000000    -0.448665   
O335     O      0.802080000000     0.771670000000     0.029230000000    -0.450894   
O336     O      0.710480000000     0.783480000000     0.027090000000    -0.446246   
O337     O      0.494120000000     0.564200000000     0.722500000000    -0.44351    
O338     O      0.006680000000     0.975800000000     0.756880000000    -0.452615   
O339     O      0.955010000000     0.515660000000     0.747420000000    -0.450406   
O340     O      0.545540000000     0.023610000000     0.732450000000    -0.451273   
O341     O      0.551500000000     0.547120000000     0.780500000000    -0.44937    
O342     O      0.961260000000     0.038460000000     0.795780000000    -0.451746   
O343     O      0.513200000000     0.997910000000     0.805580000000    -0.447259   
O344     O      0.999560000000     0.586240000000     0.771390000000    -0.451155   
O345     O      0.532490000000     0.791510000000     0.698450000000    -0.449009   
O346     O      0.520360000000     0.771030000000     0.787440000000    -0.444183   
O347     O      0.521730000000     0.735440000000     0.731790000000    -0.449418   
O348     O      0.531220000000     0.828770000000     0.753610000000    -0.444882   
O349     O      0.978460000000     0.835940000000     0.747940000000    -0.451894   
O350     O      0.968740000000     0.742490000000     0.728150000000    -0.448626   
O351     O      0.967830000000     0.780610000000     0.782450000000    -0.449583   
O352     O      0.979750000000     0.799220000000     0.692930000000    -0.446033   
O353     O      0.753960000000     0.559620000000     0.809600000000    -0.452967   
O354     O      0.748320000000     0.555630000000     0.718050000000    -0.449379   
O355     O      0.705340000000     0.556940000000     0.767140000000    -0.453355   
O356     O      0.797070000000     0.558390000000     0.761970000000    -0.452149   
O357     O      0.797950000000     0.002550000000     0.766400000000    -0.451574   
O358     O      0.705880000000     0.001050000000     0.763770000000    -0.4512     
O359     O      0.753940000000     0.999940000000     0.720110000000    -0.457365   
O360     O      0.749760000000     0.003770000000     0.811290000000    -0.45082    
O361     O      0.738710000000     0.010760000000     0.962620000000    -0.454287   
O362     O      0.731330000000     0.520420000000     0.553420000000    -0.451487   
O363     O      0.734400000000     0.563470000000     0.003730000000    -0.454784   
O364     O      0.735470000000     0.967870000000     0.511390000000    -0.453834   
O365     O      0.788960000000     0.968630000000     0.010590000000    -0.448593   
O366     O      0.786900000000     0.565090000000     0.513930000000    -0.447603   
O367     O      0.784510000000     0.014980000000     0.557610000000    -0.451817   
O368     O      0.791640000000     0.518590000000     0.966320000000    -0.448225   
O369     O      0.013460000000     0.759540000000     0.535070000000    -0.444912   
O370     O      0.511200000000     0.757010000000     0.943130000000    -0.449739   
O371     O      0.557010000000     0.766070000000     0.487060000000    -0.451761   
O372     O      0.966170000000     0.750050000000     0.989870000000    -0.443465   
O373     O      0.957070000000     0.805260000000     0.489890000000    -0.451058   
O374     O      0.548060000000     0.821330000000     0.988020000000    -0.443848   
O375     O      0.001060000000     0.812000000000     0.942300000000    -0.445947   
O376     O      0.502510000000     0.814410000000     0.534200000000    -0.448863   
O377     O      0.709690000000     0.764690000000     0.976850000000    -0.449438   
O378     O      0.800850000000     0.750320000000     0.979950000000    -0.447117   
O379     O      0.747550000000     0.713490000000     0.993720000000    -0.452471   
O380     O      0.761960000000     0.802670000000     0.962620000000    -0.449601   
O381     O      0.762100000000     0.821900000000     0.512850000000    -0.455187   
O382     O      0.751140000000     0.732130000000     0.544000000000    -0.449034   
O383     O      0.802080000000     0.771670000000     0.529230000000    -0.451187   
O384     O      0.710480000000     0.783480000000     0.527090000000    -0.446556   
S1       S      0.419420000000     0.219330000000     0.447110000000    -0.0344545  
S2       S      0.095040000000     0.343460000000     0.037370000000    -0.0360554  
S3       S      0.201220000000     0.356030000000     0.460790000000    -0.0430995  
S4       S      0.182670000000     0.178310000000     0.504680000000    -0.0416418  
S5       S      0.196630000000     0.491340000000     0.354530000000    -0.0322618  
S6       S      0.263740000000     0.086370000000     0.146320000000    -0.0333652  
S7       S      0.028450000000     0.212440000000     0.327840000000    -0.0347918  
S8       S      0.068110000000     0.258660000000     0.081060000000    -0.0390474  
S9       S      0.092820000000     0.104040000000     0.277850000000    -0.0301525  
S10      S      0.413980000000     0.090010000000     0.302550000000    -0.0387627  
S11      S      0.450410000000     0.444690000000     0.313410000000    -0.0476039  
S12      S      0.050230000000     0.112840000000     0.199570000000    -0.0298067  
S13      S      0.419420000000     0.219330000000     0.947110000000    -0.0341727  
S14      S      0.095040000000     0.343460000000     0.537370000000    -0.0359731  
S15      S      0.201220000000     0.356030000000     0.960790000000    -0.0425969  
S16      S      0.182670000000     0.178310000000     0.004680000000    -0.0424512  
S17      S      0.196630000000     0.491340000000     0.854530000000    -0.0321861  
S18      S      0.263740000000     0.086370000000     0.646320000000    -0.0333288  
S19      S      0.028450000000     0.212440000000     0.827840000000    -0.0347477  
S20      S      0.068110000000     0.258660000000     0.581060000000    -0.0388495  
S21      S      0.092820000000     0.104040000000     0.777850000000    -0.0301125  
S22      S      0.413980000000     0.090010000000     0.802550000000    -0.0387133  
S23      S      0.450410000000     0.444690000000     0.813400000000    -0.0475465  
S24      S      0.050230000000     0.112840000000     0.699570000000    -0.0297439  
S25      S      0.419420000000     0.719330000000     0.447110000000    -0.0344578  
S26      S      0.095040000000     0.843460000000     0.037370000000    -0.0360728  
S27      S      0.201220000000     0.856030000000     0.460790000000    -0.0431096  
S28      S      0.182670000000     0.678310000000     0.504680000000    -0.0416494  
S29      S      0.196630000000     0.991340000000     0.354530000000    -0.0322449  
S30      S      0.263740000000     0.586370000000     0.146320000000    -0.033355   
S31      S      0.028450000000     0.712440000000     0.327840000000    -0.0347776  
S32      S      0.068110000000     0.758660000000     0.081060000000    -0.0390467  
S33      S      0.092820000000     0.604040000000     0.277850000000    -0.0301461  
S34      S      0.413980000000     0.590010000000     0.302550000000    -0.0387625  
S35      S      0.450410000000     0.944690000000     0.313410000000    -0.0476018  
S36      S      0.050230000000     0.612840000000     0.199570000000    -0.0298024  
S37      S      0.419420000000     0.719330000000     0.947110000000    -0.0341762  
S38      S      0.095040000000     0.843460000000     0.537370000000    -0.0359907  
S39      S      0.201220000000     0.856030000000     0.960790000000    -0.0426072  
S40      S      0.182670000000     0.678310000000     0.004680000000    -0.0424584  
S41      S      0.196630000000     0.991340000000     0.854530000000    -0.0321708  
S42      S      0.263740000000     0.586370000000     0.646320000000    -0.0333186  
S43      S      0.028450000000     0.712440000000     0.827840000000    -0.0347335  
S44      S      0.068110000000     0.758660000000     0.581060000000    -0.0388489  
S45      S      0.092820000000     0.604040000000     0.777850000000    -0.0301062  
S46      S      0.413980000000     0.590010000000     0.802550000000    -0.0387131  
S47      S      0.450410000000     0.944690000000     0.813400000000    -0.0475446  
S48      S      0.050230000000     0.612840000000     0.699570000000    -0.0297397  
S49      S      0.919420000000     0.219330000000     0.447110000000    -0.0344263  
S50      S      0.595040000000     0.343460000000     0.037370000000    -0.036061   
S51      S      0.701220000000     0.356030000000     0.460790000000    -0.0431     
S52      S      0.682670000000     0.178310000000     0.504680000000    -0.0416487  
S53      S      0.696630000000     0.491340000000     0.354530000000    -0.0322577  
S54      S      0.763730000000     0.086370000000     0.146320000000    -0.0333769  
S55      S      0.528450000000     0.212440000000     0.327840000000    -0.0347925  
S56      S      0.568120000000     0.258660000000     0.081060000000    -0.0390462  
S57      S      0.592820000000     0.104040000000     0.277850000000    -0.0301397  
S58      S      0.913980000000     0.090010000000     0.302550000000    -0.0387579  
S59      S      0.950410000000     0.444690000000     0.313410000000    -0.047593   
S60      S      0.550230000000     0.112840000000     0.199570000000    -0.0297679  
S61      S      0.919420000000     0.219330000000     0.947110000000    -0.0341445  
S62      S      0.595040000000     0.343460000000     0.537370000000    -0.0359788  
S63      S      0.701220000000     0.356030000000     0.960790000000    -0.0425973  
S64      S      0.682670000000     0.178310000000     0.004680000000    -0.0424584  
S65      S      0.696630000000     0.491340000000     0.854530000000    -0.0321819  
S66      S      0.763730000000     0.086370000000     0.646320000000    -0.0333404  
S67      S      0.528450000000     0.212440000000     0.827840000000    -0.0347484  
S68      S      0.568120000000     0.258660000000     0.581060000000    -0.0388482  
S69      S      0.592820000000     0.104040000000     0.777850000000    -0.0300997  
S70      S      0.913980000000     0.090010000000     0.802550000000    -0.0387084  
S71      S      0.950410000000     0.444690000000     0.813400000000    -0.0475356  
S72      S      0.550230000000     0.112840000000     0.699570000000    -0.029705   
S73      S      0.919420000000     0.719330000000     0.447110000000    -0.0344296  
S74      S      0.595040000000     0.843460000000     0.037370000000    -0.0360784  
S75      S      0.701220000000     0.856030000000     0.460790000000    -0.04311    
S76      S      0.682670000000     0.678310000000     0.504680000000    -0.0416563  
S77      S      0.696630000000     0.991340000000     0.354530000000    -0.0322408  
S78      S      0.763730000000     0.586370000000     0.146320000000    -0.0333667  
S79      S      0.528450000000     0.712440000000     0.327840000000    -0.0347783  
S80      S      0.568120000000     0.758660000000     0.081060000000    -0.0390455  
S81      S      0.592820000000     0.604040000000     0.277850000000    -0.0301334  
S82      S      0.913980000000     0.590010000000     0.302550000000    -0.0387576  
S83      S      0.950410000000     0.944690000000     0.313410000000    -0.0475909  
S84      S      0.550230000000     0.612840000000     0.199570000000    -0.0297636  
S85      S      0.919420000000     0.719330000000     0.947110000000    -0.034148   
S86      S      0.595040000000     0.843460000000     0.537370000000    -0.0359963  
S87      S      0.701220000000     0.856030000000     0.960790000000    -0.0426076  
S88      S      0.682670000000     0.678310000000     0.004680000000    -0.0424656  
S89      S      0.696630000000     0.991340000000     0.854530000000    -0.0321667  
S90      S      0.763730000000     0.586370000000     0.646320000000    -0.0333303  
S91      S      0.528450000000     0.712440000000     0.827840000000    -0.0347342  
S92      S      0.568120000000     0.758660000000     0.581060000000    -0.0388476  
S93      S      0.592820000000     0.604040000000     0.777850000000    -0.0300934  
S94      S      0.913980000000     0.590010000000     0.802550000000    -0.0387082  
S95      S      0.950410000000     0.944690000000     0.813400000000    -0.0475337  
S96      S      0.550230000000     0.612840000000     0.699570000000    -0.0297007  


