data_structure

_audit_creation_method RASPA-1.0
_audit_creation_date 2023-5-22
_audit_author_name 'Poobodin Mano'

_cell_length_a    31.3484
_cell_length_b    31.3342
_cell_length_c    42.2793
_cell_angle_alpha 90
_cell_angle_beta  90
_cell_angle_gamma 90
_cell_volume      41530

_symmetry_cell_setting          triclinic
_symmetry_space_group_name_Hall 'P 1'
_symmetry_space_group_name_H-M  'P 1'
_symmetry_Int_Tables_number     1

_symmetry_equiv_pos_as_xyz 'x,y,z'

loop_
_atom_site_label
_atom_site_type_symbol
_atom_site_fract_x
_atom_site_fract_y
_atom_site_fract_z
_atom_site_charge
C1       C      0.255420000000     0.014230000000     0.503720000000     0.427997   
C2       C      0.417750000000     0.013420000000     0.008300000000     0.429316   
C3       C      0.340410000000     0.016380000000     0.445560000000     0.427263   
C4       C      0.336440000000     0.011490000000     0.066010000000     0.427415   
C5       C      0.253890000000     0.012100000000     0.253220000000     0.425767   
C6       C      0.416770000000     0.015620000000     0.259590000000     0.422724   
C7       C      0.336410000000     0.011850000000     0.196290000000     0.427007   
C8       C      0.330170000000     0.016060000000     0.316690000000     0.426962   
C9       C      0.002000000000     0.669470000000     0.439260000000     0.428558   
C10      C      0.001210000000     0.669870000000     0.060070000000     0.428288   
C11      C      0.999540000000     0.586960000000     0.499780000000     0.428443   
C12      C      0.004550000000     0.749720000000     0.499490000000     0.430395   
C13      C      0.999960000000     0.655060000000     0.189310000000     0.428683   
C14      C      0.999480000000     0.654590000000     0.310100000000     0.428848   
C15      C      0.000010000000     0.574450000000     0.249510000000     0.429677   
C16      C      0.998480000000     0.737290000000     0.249840000000     0.428988   
C17      C      0.674460000000     0.010530000000     0.439820000000     0.425575   
C18      C      0.659600000000     0.016020000000     0.060000000000     0.425779   
C19      C      0.749240000000     0.015160000000     0.506210000000     0.428172   
C20      C      0.587790000000     0.012520000000     0.493290000000     0.42955    
C21      C      0.673930000000     0.012080000000     0.188660000000     0.42509    
C22      C      0.677360000000     0.007710000000     0.309350000000     0.425351   
C23      C      0.755440000000     0.004540000000     0.248740000000     0.42442    
C24      C      0.592500000000     0.013680000000     0.249390000000     0.422259   
C25      C      0.084590000000     0.997670000000     0.514840000000     0.429865   
C26      C      0.923220000000     0.005710000000     0.506880000000     0.423803   
C27      C      0.008890000000     0.083200000000     0.509160000000     0.426747   
C28      C      0.998350000000     0.921610000000     0.512700000000     0.427221   
C29      C      0.092160000000     0.987330000000     0.225850000000     0.429946   
C30      C      0.930830000000     0.997340000000     0.237680000000     0.432381   
C31      C      0.015380000000     0.073170000000     0.227890000000     0.429089   
C32      C      0.008460000000     0.911080000000     0.235750000000     0.427515   
C33      C      0.994490000000     0.328480000000     0.422230000000     0.425557   
C34      C      0.999050000000     0.338360000000     0.043120000000     0.426246   
C35      C      0.997270000000     0.415380000000     0.479150000000     0.428049   
C36      C      0.995890000000     0.252720000000     0.486240000000     0.429216   
C37      C      0.998570000000     0.316980000000     0.171400000000     0.426187   
C38      C      0.994300000000     0.333030000000     0.291930000000     0.425535   
C39      C      0.997440000000     0.405590000000     0.225870000000     0.429836   
C40      C      0.995810000000     0.243600000000     0.237540000000     0.429834   
C41      C      0.032690000000     0.346820000000     0.342130000000    -0.0107878  
C42      C      0.952780000000     0.343220000000     0.341550000000    -0.011075   
C43      C      0.033680000000     0.319170000000     0.371840000000    -0.0106192  
C44      C      0.953560000000     0.317400000000     0.372480000000    -0.0112568  
C45      C      0.040600000000     0.340920000000     0.093340000000    -0.0113511  
C46      C      0.960600000000     0.344840000000     0.094170000000    -0.010757   
C47      C      0.039410000000     0.309240000000     0.121130000000    -0.0111281  
C48      C      0.959510000000     0.311540000000     0.120520000000    -0.0103263  
C49      C      0.047640000000     0.141420000000     0.244500000000    -0.00926881 
C50      C      0.988160000000     0.139770000000     0.204360000000    -0.0102444  
C51      C      0.025630000000     0.178320000000     0.261570000000    -0.00910762 
C52      C      0.964340000000     0.174220000000     0.223090000000    -0.0095231  
C53      C      0.984090000000     0.153520000000     0.027770000000    -0.00991246 
C54      C      0.044770000000     0.147710000000     0.488970000000    -0.00928853 
C55      C      0.962660000000     0.186890000000     0.006560000000    -0.0103626  
C56      C      0.025330000000     0.183540000000     0.469160000000    -0.00951936 
C57      C      0.869540000000     0.036650000000     0.259170000000    -0.0106068  
C58      C      0.859860000000     0.979520000000     0.217630000000    -0.00403848 
C59      C      0.824190000000     0.027270000000     0.271430000000    -0.011044   
C60      C      0.819700000000     0.964440000000     0.234380000000    -0.00867483 
C61      C      0.690250000000     0.967140000000     0.358880000000    -0.00924911 
C62      C      0.692380000000     0.047040000000     0.358680000000    -0.0101974  
C63      C      0.667010000000     0.967930000000     0.390820000000    -0.00948255 
C64      C      0.666610000000     0.048380000000     0.389120000000    -0.0104428  
C65      C      0.682850000000     0.053450000000     0.138970000000    -0.011363   
C66      C      0.674930000000     0.973490000000     0.137600000000    -0.00889499 
C67      C      0.653270000000     0.057050000000     0.110160000000    -0.0108565  
C68      C      0.644040000000     0.977700000000     0.109940000000    -0.00878634 
C69      C      0.817980000000     0.050100000000     0.995400000000    -0.00842262 
C70      C      0.813130000000     0.988360000000     0.033520000000    -0.00518997 
C71      C      0.857790000000     0.030310000000     0.480560000000    -0.00960853 
C72      C      0.855660000000     0.971310000000     0.521160000000    -0.00921025 
C73      C      0.038060000000     0.473390000000     0.221160000000    -0.0103503  
C74      C      0.958270000000     0.474290000000     0.223410000000    -0.0102163  
C75      C      0.040010000000     0.506050000000     0.248070000000    -0.0106573  
C76      C      0.959870000000     0.506260000000     0.250670000000    -0.0103433  
C77      C      0.985060000000     0.841700000000     0.215020000000    -0.00871189 
C78      C      0.041240000000     0.846510000000     0.257620000000    -0.00970197 
C79      C      0.964660000000     0.804030000000     0.232320000000    -0.00944127 
C80      C      0.024520000000     0.804940000000     0.272190000000    -0.0101082  
C81      C      0.038180000000     0.517870000000     0.001410000000    -0.0119076  
C82      C      0.958060000000     0.519360000000     0.500860000000    -0.010784   
C83      C      0.037850000000     0.483290000000     0.975910000000    -0.00975963 
C84      C      0.957910000000     0.484130000000     0.475690000000    -0.0107109  
C85      C      0.961880000000     0.679160000000     0.389270000000    -0.0103956  
C86      C      0.041850000000     0.674520000000     0.388750000000    -0.0104112  
C87      C      0.959620000000     0.649510000000     0.360610000000    -0.0105536  
C88      C      0.039600000000     0.644810000000     0.360110000000    -0.0107393  
C89      C      0.040670000000     0.648070000000     0.139310000000    -0.0104911  
C90      C      0.960530000000     0.647760000000     0.138780000000    -0.010631   
C91      C      0.040850000000     0.677500000000     0.110480000000    -0.0105151  
C92      C      0.960750000000     0.677520000000     0.110120000000    -0.0104519  
C93      C      0.039580000000     0.815920000000     0.016890000000    -0.00996104 
C94      C      0.978050000000     0.817820000000     0.478280000000    -0.00939501 
C95      C      0.019280000000     0.852530000000     0.035520000000    -0.00964196 
C96      C      0.960390000000     0.857210000000     0.495060000000    -0.00909608 
C97      C      0.525460000000     0.055980000000     0.245410000000    -0.011614   
C98      C      0.523510000000     0.975830000000     0.244410000000    -0.00918477 
C99      C      0.484640000000     0.056200000000     0.265680000000    -0.0114395  
C100     C      0.484720000000     0.976210000000     0.266200000000    -0.00913055 
C101     C      0.185940000000     0.976790000000     0.266460000000    -0.00760603 
C102     C      0.187020000000     0.041320000000     0.230810000000    -0.0103394  
C103     C      0.158790000000     0.953040000000     0.242330000000    -0.00648803 
C104     C      0.159720000000     0.016960000000     0.206430000000    -0.0127101  
C105     C      0.520130000000     0.052110000000     0.485890000000    -0.00990963 
C106     C      0.520210000000     0.972160000000     0.487440000000    -0.00865419 
C107     C      0.485860000000     0.053220000000     0.011470000000    -0.010647   
C108     C      0.485450000000     0.972980000000     0.012770000000    -0.00917788 
C109     C      0.347200000000     0.058150000000     0.395870000000    -0.0109101  
C110     C      0.352010000000     0.978120000000     0.395160000000    -0.00875739 
C111     C      0.318720000000     0.056780000000     0.366400000000    -0.0108656  
C112     C      0.321810000000     0.976710000000     0.367000000000    -0.00843361 
C113     C      0.346290000000     0.969720000000     0.115210000000    -0.00908468 
C114     C      0.351190000000     0.049770000000     0.115730000000    -0.010296   
C115     C      0.323250000000     0.970930000000     0.147150000000    -0.00921371 
C116     C      0.326020000000     0.051120000000     0.146410000000    -0.010033   
C117     C      0.186880000000     0.046030000000     0.019890000000    -0.00905384 
C118     C      0.189210000000     0.984780000000     0.481170000000    -0.004301   
C119     C      0.151800000000     0.023030000000     0.038530000000    -0.012233   
C120     C      0.151930000000     0.963650000000     0.498330000000    -0.0103458  
C121     C      0.255420000000     0.014230000000     0.003720000000     0.427958   
C122     C      0.417750000000     0.013420000000     0.508300000000     0.429378   
C123     C      0.340410000000     0.016380000000     0.945560000000     0.427206   
C124     C      0.336440000000     0.011490000000     0.566010000000     0.427489   
C125     C      0.253890000000     0.012100000000     0.753220000000     0.425799   
C126     C      0.416770000000     0.015620000000     0.759590000000     0.422722   
C127     C      0.336410000000     0.011850000000     0.696290000000     0.427002   
C128     C      0.330170000000     0.016060000000     0.816690000000     0.426959   
C129     C      0.002000000000     0.669470000000     0.939270000000     0.428638   
C130     C      0.001210000000     0.669870000000     0.560070000000     0.428277   
C131     C      0.999540000000     0.586960000000     0.999780000000     0.428896   
C132     C      0.004550000000     0.749720000000     0.999490000000     0.430962   
C133     C      0.999960000000     0.655060000000     0.689310000000     0.428673   
C134     C      0.999480000000     0.654590000000     0.810100000000     0.428845   
C135     C      0.000010000000     0.574450000000     0.749510000000     0.429693   
C136     C      0.998480000000     0.737290000000     0.749840000000     0.428983   
C137     C      0.674460000000     0.010530000000     0.939820000000     0.425598   
C138     C      0.659600000000     0.016020000000     0.560000000000     0.425789   
C139     C      0.749240000000     0.015160000000     0.006210000000     0.428197   
C140     C      0.587790000000     0.012520000000     0.993290000000     0.429608   
C141     C      0.673930000000     0.012080000000     0.688650000000     0.424992   
C142     C      0.677360000000     0.007710000000     0.809350000000     0.425348   
C143     C      0.755440000000     0.004540000000     0.748740000000     0.424417   
C144     C      0.592500000000     0.013680000000     0.749390000000     0.422264   
C145     C      0.084590000000     0.997670000000     0.014840000000     0.429351   
C146     C      0.923220000000     0.005710000000     0.006880000000     0.423579   
C147     C      0.008890000000     0.083200000000     0.009160000000     0.426253   
C148     C      0.998350000000     0.921610000000     0.012710000000     0.426741   
C149     C      0.092160000000     0.987330000000     0.725850000000     0.429946   
C150     C      0.930830000000     0.997340000000     0.737680000000     0.432387   
C151     C      0.015380000000     0.073170000000     0.727890000000     0.429089   
C152     C      0.008460000000     0.911080000000     0.735750000000     0.427515   
C153     C      0.994490000000     0.328480000000     0.922230000000     0.425581   
C154     C      0.999050000000     0.338360000000     0.543120000000     0.426179   
C155     C      0.997270000000     0.415380000000     0.979150000000     0.428159   
C156     C      0.995890000000     0.252720000000     0.986240000000     0.429268   
C157     C      0.998570000000     0.316980000000     0.671400000000     0.426183   
C158     C      0.994300000000     0.333030000000     0.791930000000     0.425529   
C159     C      0.997440000000     0.405590000000     0.725870000000     0.429832   
C160     C      0.995810000000     0.243600000000     0.737540000000     0.429829   
C161     C      0.032690000000     0.346820000000     0.842130000000    -0.0107971  
C162     C      0.952780000000     0.343220000000     0.841550000000    -0.011065   
C163     C      0.033680000000     0.319170000000     0.871840000000    -0.0106118  
C164     C      0.953560000000     0.317400000000     0.872470000000    -0.0112775  
C165     C      0.040600000000     0.340920000000     0.593340000000    -0.0113421  
C166     C      0.960600000000     0.344840000000     0.594170000000    -0.0107629  
C167     C      0.039410000000     0.309240000000     0.621120000000    -0.0111479  
C168     C      0.959510000000     0.311540000000     0.620520000000    -0.0103244  
C169     C      0.047640000000     0.141420000000     0.744500000000    -0.00927034 
C170     C      0.988160000000     0.139770000000     0.704360000000    -0.0102529  
C171     C      0.025630000000     0.178320000000     0.761570000000    -0.00910595 
C172     C      0.964340000000     0.174220000000     0.723090000000    -0.00952271 
C173     C      0.984090000000     0.153520000000     0.527770000000    -0.0101145  
C174     C      0.044770000000     0.147710000000     0.988960000000    -0.00845803 
C175     C      0.962660000000     0.186890000000     0.506560000000    -0.00950415 
C176     C      0.025330000000     0.183540000000     0.969160000000    -0.00970616 
C177     C      0.869540000000     0.036650000000     0.759170000000    -0.0106064  
C178     C      0.859860000000     0.979520000000     0.717630000000    -0.00403068 
C179     C      0.824190000000     0.027270000000     0.771430000000    -0.0110465  
C180     C      0.819700000000     0.964440000000     0.734380000000    -0.00867634 
C181     C      0.690250000000     0.967140000000     0.858880000000    -0.00923905 
C182     C      0.692380000000     0.047040000000     0.858690000000    -0.0102161  
C183     C      0.667010000000     0.967930000000     0.890820000000    -0.00949476 
C184     C      0.666610000000     0.048380000000     0.889120000000    -0.0104383  
C185     C      0.682850000000     0.053450000000     0.638970000000    -0.0113491  
C186     C      0.674930000000     0.973490000000     0.637600000000    -0.00889452 
C187     C      0.653270000000     0.057050000000     0.610160000000    -0.0108662  
C188     C      0.644040000000     0.977700000000     0.609930000000    -0.00875101 
C189     C      0.817980000000     0.050100000000     0.495400000000    -0.00925416 
C190     C      0.813130000000     0.988360000000     0.533520000000    -0.00518369 
C191     C      0.857790000000     0.030310000000     0.980560000000    -0.00950104 
C192     C      0.855660000000     0.971310000000     0.021160000000    -0.00925511 
C193     C      0.038060000000     0.473390000000     0.721160000000    -0.0103503  
C194     C      0.958270000000     0.474290000000     0.723410000000    -0.0102166  
C195     C      0.040010000000     0.506050000000     0.748070000000    -0.010658   
C196     C      0.959870000000     0.506260000000     0.750670000000    -0.0103462  
C197     C      0.985060000000     0.841700000000     0.715020000000    -0.00872015 
C198     C      0.041240000000     0.846510000000     0.757620000000    -0.00970296 
C199     C      0.964660000000     0.804030000000     0.732320000000    -0.00944113 
C200     C      0.024520000000     0.804940000000     0.772190000000    -0.0101069  
C201     C      0.038180000000     0.517870000000     0.501410000000    -0.0105844  
C202     C      0.958060000000     0.519360000000     0.000850000000    -0.0120003  
C203     C      0.037850000000     0.483290000000     0.475900000000    -0.0105038  
C204     C      0.957910000000     0.484130000000     0.975690000000    -0.0100475  
C205     C      0.961880000000     0.679160000000     0.889270000000    -0.0104114  
C206     C      0.041850000000     0.674520000000     0.888750000000    -0.0104339  
C207     C      0.959620000000     0.649510000000     0.860610000000    -0.0105511  
C208     C      0.039600000000     0.644810000000     0.860110000000    -0.0107306  
C209     C      0.040670000000     0.648070000000     0.639310000000    -0.0104887  
C210     C      0.960530000000     0.647760000000     0.638780000000    -0.0106513  
C211     C      0.040850000000     0.677500000000     0.610480000000    -0.0105209  
C212     C      0.960750000000     0.677520000000     0.610120000000    -0.0104419  
C213     C      0.039580000000     0.815920000000     0.516890000000    -0.00908875 
C214     C      0.978050000000     0.817820000000     0.978280000000    -0.0095973  
C215     C      0.019280000000     0.852530000000     0.535520000000    -0.00982997 
C216     C      0.960390000000     0.857210000000     0.995060000000    -0.00820602 
C217     C      0.525460000000     0.055980000000     0.745410000000    -0.0116158  
C218     C      0.523510000000     0.975830000000     0.744400000000    -0.00922417 
C219     C      0.484640000000     0.056200000000     0.765680000000    -0.0114407  
C220     C      0.484720000000     0.976210000000     0.766200000000    -0.00911673 
C221     C      0.185940000000     0.976790000000     0.766460000000    -0.00760229 
C222     C      0.187020000000     0.041320000000     0.730810000000    -0.0103371  
C223     C      0.158790000000     0.953040000000     0.742330000000    -0.00648936 
C224     C      0.159720000000     0.016960000000     0.706430000000    -0.012714   
C225     C      0.520130000000     0.052110000000     0.985890000000    -0.00945838 
C226     C      0.520210000000     0.972160000000     0.987440000000    -0.00821129 
C227     C      0.485860000000     0.053220000000     0.511470000000    -0.010217   
C228     C      0.485450000000     0.972980000000     0.512770000000    -0.00873474 
C229     C      0.347200000000     0.058150000000     0.895870000000    -0.0109021  
C230     C      0.352010000000     0.978120000000     0.895160000000    -0.00874854 
C231     C      0.318720000000     0.056780000000     0.866400000000    -0.0108679  
C232     C      0.321810000000     0.976710000000     0.867000000000    -0.00843736 
C233     C      0.346290000000     0.969720000000     0.615210000000    -0.00907622 
C234     C      0.351190000000     0.049770000000     0.615730000000    -0.010294   
C235     C      0.323250000000     0.970930000000     0.647150000000    -0.00921147 
C236     C      0.326020000000     0.051120000000     0.646410000000    -0.0100349  
C237     C      0.186880000000     0.046030000000     0.519890000000    -0.00902949 
C238     C      0.189210000000     0.984780000000     0.981170000000    -0.0042044  
C239     C      0.151800000000     0.023030000000     0.538530000000    -0.01222    
C240     C      0.151930000000     0.963650000000     0.998340000000    -0.00947372 
H1       H      0.948130000000     0.377420000000     0.347690000000     0.0388019  
H2       H      0.033380000000     0.380890000000     0.349490000000     0.0395419  
H3       H      0.062470000000     0.327720000000     0.385810000000     0.043418   
H4       H      0.924830000000     0.332960000000     0.327280000000     0.0430817  
H5       H      0.925120000000     0.326070000000     0.386790000000     0.0430847  
H6       H      0.950860000000     0.282990000000     0.366360000000     0.0392826  
H7       H      0.062040000000     0.340480000000     0.328160000000     0.0432611  
H8       H      0.036970000000     0.285250000000     0.364490000000     0.0390461  
H9       H      0.960100000000     0.377060000000     0.105200000000     0.0401181  
H10      H      0.045360000000     0.373480000000     0.103170000000     0.0391812  
H11      H      0.068050000000     0.314290000000     0.136150000000     0.0430442  
H12      H      0.931250000000     0.341550000000     0.079640000000     0.0433568  
H13      H      0.930470000000     0.316720000000     0.135090000000     0.0434035  
H14      H      0.956830000000     0.279440000000     0.109460000000     0.0385917  
H15      H      0.068590000000     0.333460000000     0.078190000000     0.0431745  
H16      H      0.041250000000     0.276390000000     0.111270000000     0.0388767  
H17      H      0.007430000000     0.155510000000     0.185610000000     0.0412331  
H18      H      0.071610000000     0.155230000000     0.228040000000     0.0388999  
H19      H      0.050020000000     0.200340000000     0.271510000000     0.0408035  
H20      H      0.964530000000     0.118300000000     0.192860000000     0.0405187  
H21      H      0.944770000000     0.193620000000     0.206490000000     0.0402388  
H22      H      0.942630000000     0.158350000000     0.240260000000     0.0399699  
H23      H      0.065180000000     0.121400000000     0.261910000000     0.0402675  
H24      H      0.007410000000     0.164770000000     0.281780000000     0.0392931  
H25      H      0.068770000000     0.162180000000     0.505090000000     0.0387088  
H26      H      0.003640000000     0.170320000000     0.045840000000     0.040674   
H27      H      0.943840000000     0.209160000000     0.021590000000     0.0400846  
H28      H      0.061950000000     0.124980000000     0.473270000000     0.0409671  
H29      H      0.051240000000     0.203120000000     0.458550000000     0.0412123  
H30      H      0.007330000000     0.168650000000     0.449360000000     0.0394738  
H31      H      0.959060000000     0.134620000000     0.040100000000     0.0405949  
H32      H      0.940430000000     0.170310000000     0.990150000000     0.041129   
H33      H      0.850870000000     0.002000000000     0.198380000000     0.0400753  
H34      H      0.867880000000     0.065410000000     0.243820000000     0.0367975  
H35      H      0.807900000000     0.057880000000     0.277090000000     0.0414054  
H36      H      0.876010000000     0.951420000000     0.206820000000     0.0387575  
H37      H      0.798550000000     0.948570000000     0.216790000000     0.0407109  
H38      H      0.828560000000     0.940670000000     0.252790000000     0.042475   
H39      H      0.890520000000     0.045000000000     0.279470000000     0.0411965  
H40      H      0.827200000000     0.009390000000     0.294030000000     0.0370209  
H41      H      0.726850000000     0.048140000000     0.364880000000     0.0381202  
H42      H      0.724960000000     0.963250000000     0.363460000000     0.0391283  
H43      H      0.678200000000     0.940380000000     0.405170000000     0.0432068  
H44      H      0.684940000000     0.076150000000     0.344720000000     0.0435437  
H45      H      0.675990000000     0.077460000000     0.402490000000     0.0432628  
H46      H      0.632240000000     0.051360000000     0.382970000000     0.0403131  
H47      H      0.679350000000     0.938800000000     0.345280000000     0.0428975  
H48      H      0.632350000000     0.963320000000     0.386370000000     0.0397297  
H49      H      0.707450000000     0.967760000000     0.127990000000     0.0397993  
H50      H      0.716380000000     0.053740000000     0.130390000000     0.0391843  
H51      H      0.663230000000     0.084930000000     0.095680000000     0.0428631  
H52      H      0.665760000000     0.945080000000     0.151790000000     0.0430947  
H53      H      0.645840000000     0.948330000000     0.095270000000     0.0432163  
H54      H      0.611120000000     0.979840000000     0.119610000000     0.039359   
H55      H      0.678300000000     0.082070000000     0.154110000000     0.0435054  
H56      H      0.620340000000     0.063170000000     0.118830000000     0.038414   
H57      H      0.819700000000     0.007400000000     0.055170000000     0.0362825  
H58      H      0.828000000000     0.073430000000     0.013790000000     0.0404696  
H59      H      0.878540000000     0.056180000000     0.471130000000     0.0393549  
H60      H      0.792420000000     0.961180000000     0.040630000000     0.0406035  
H61      H      0.874060000000     0.957150000000     0.541070000000     0.0415661  
H62      H      0.848710000000     0.945100000000     0.504180000000     0.0385846  
H63      H      0.799850000000     0.067470000000     0.976790000000     0.040173   
H64      H      0.847960000000     0.009440000000     0.460570000000     0.0413237  
H65      H      0.955800000000     0.492460000000     0.200880000000     0.0392173  
H66      H      0.038810000000     0.491050000000     0.198350000000     0.0388425  
H67      H      0.068670000000     0.526450000000     0.244830000000     0.0431746  
H68      H      0.929130000000     0.454360000000     0.225740000000     0.0432069  
H69      H      0.930970000000     0.526740000000     0.249700000000     0.0435257  
H70      H      0.958910000000     0.488140000000     0.273280000000     0.0398557  
H71      H      0.066850000000     0.452750000000     0.222140000000     0.0431705  
H72      H      0.043800000000     0.488420000000     0.270720000000     0.0396867  
H73      H      0.069090000000     0.838470000000     0.242460000000     0.0378781  
H74      H      0.007270000000     0.829270000000     0.196690000000     0.0425117  
H75      H      0.948340000000     0.783200000000     0.214770000000     0.0395791  
H76      H      0.053080000000     0.867850000000     0.276740000000     0.0397994  
H77      H      0.051830000000     0.785610000000     0.280990000000     0.040736   
H78      H      0.004710000000     0.813420000000     0.293070000000     0.0387888  
H79      H      0.959700000000     0.860620000000     0.203070000000     0.0381794  
H80      H      0.940390000000     0.816400000000     0.249180000000     0.0419818  
H81      H      0.954780000000     0.504060000000     0.524460000000     0.0396307  
H82      H      0.040010000000     0.501970000000     0.024890000000     0.0398864  
H83      H      0.066530000000     0.462830000000     0.978840000000     0.0432394  
H84      H      0.929790000000     0.540180000000     0.497180000000     0.0431461  
H85      H      0.928850000000     0.464260000000     0.478780000000     0.043296   
H86      H      0.955960000000     0.499560000000     0.452050000000     0.0392244  
H87      H      0.067410000000     0.537560000000     0.998550000000     0.0440404  
H88      H      0.040150000000     0.499140000000     0.952430000000     0.0392412  
H89      H      0.046350000000     0.707730000000     0.380090000000     0.0390698  
H90      H      0.961140000000     0.712670000000     0.380610000000     0.0387842  
H91      H      0.931220000000     0.658160000000     0.346240000000     0.0431244  
H92      H      0.070240000000     0.665860000000     0.403130000000     0.0428072  
H93      H      0.068530000000     0.649860000000     0.345400000000     0.043542   
H94      H      0.040310000000     0.611310000000     0.368790000000     0.0392698  
H95      H      0.932940000000     0.674120000000     0.403980000000     0.0435231  
H96      H      0.955100000000     0.616290000000     0.369260000000     0.0395391  
H97      H      0.958090000000     0.614330000000     0.130140000000     0.039395   
H98      H      0.043640000000     0.614590000000     0.130860000000     0.0391574  
H99      H      0.069700000000     0.670570000000     0.096110000000     0.0433575  
H100     H      0.931640000000     0.654610000000     0.153150000000     0.0431329  
H101     H      0.932170000000     0.670600000000     0.095450000000     0.0430682  
H102     H      0.958100000000     0.710950000000     0.118730000000     0.0390114  
H103     H      0.069170000000     0.655240000000     0.154020000000     0.0432527  
H104     H      0.043400000000     0.711000000000     0.118980000000     0.0389274  
H105     H      0.997100000000     0.828860000000     0.457660000000     0.0396443  
H106     H      0.063080000000     0.829420000000     0.499910000000     0.0411866  
H107     H      0.044820000000     0.871530000000     0.047190000000     0.0400274  
H108     H      0.951220000000     0.798320000000     0.468920000000     0.0409674  
H109     H      0.945520000000     0.879010000000     0.477450000000     0.0406566  
H110     H      0.934770000000     0.846500000000     0.011420000000     0.0378854  
H111     H      0.056790000000     0.794530000000     0.033590000000     0.0399363  
H112     H      0.998180000000     0.838890000000     0.054090000000     0.0413456  
H113     H      0.512080000000     0.973920000000     0.219540000000     0.0403206  
H114     H      0.516070000000     0.060410000000     0.220260000000     0.039055   
H115     H      0.465290000000     0.084640000000     0.259280000000     0.0430072  
H116     H      0.542280000000     0.946470000000     0.249310000000     0.0435212  
H117     H      0.465320000000     0.947250000000     0.261370000000     0.0433319  
H118     H      0.496120000000     0.974190000000     0.291070000000     0.04005    
H119     H      0.545550000000     0.083710000000     0.252270000000     0.0428432  
H120     H      0.494180000000     0.059680000000     0.290880000000     0.0386877  
H121     H      0.165370000000     0.060450000000     0.246080000000     0.0400235  
H122     H      0.164150000000     0.991770000000     0.284000000000     0.0436778  
H123     H      0.137140000000     0.930270000000     0.254630000000     0.03626    
H124     H      0.208770000000     0.063570000000     0.218140000000     0.040135   
H125     H      0.138620000000     0.039780000000     0.193680000000     0.037651   
H126     H      0.181460000000     0.001670000000     0.189010000000     0.0398535  
H127     H      0.206550000000     0.953790000000     0.279420000000     0.0412808  
H128     H      0.180500000000     0.934290000000     0.226840000000     0.0402123  
H129     H      0.504530000000     0.969590000000     0.463920000000     0.0394324  
H130     H      0.504070000000     0.052780000000     0.462430000000     0.0386872  
H131     H      0.465840000000     0.082130000000     0.008090000000     0.0433333  
H132     H      0.540330000000     0.943330000000     0.490830000000     0.0429426  
H133     H      0.465120000000     0.944140000000     0.510150000000     0.0431874  
H134     H      0.501110000000     0.971330000000     0.036350000000     0.0397241  
H135     H      0.540180000000     0.081240000000     0.987780000000     0.0433456  
H136     H      0.501870000000     0.055960000000     0.034860000000     0.0395058  
H137     H      0.385330000000     0.978080000000     0.386120000000     0.0400687  
H138     H      0.380690000000     0.063170000000     0.388050000000     0.0386307  
H139     H      0.325230000000     0.085500000000     0.351750000000     0.0431704  
H140     H      0.347500000000     0.948640000000     0.409380000000     0.0432452  
H141     H      0.329070000000     0.947820000000     0.352740000000     0.043166   
H142     H      0.288640000000     0.973480000000     0.376050000000     0.0392206  
H143     H      0.337840000000     0.086020000000     0.410570000000     0.0431543  
H144     H      0.284890000000     0.058370000000     0.374240000000     0.0387797  
H145     H      0.385790000000     0.050150000000     0.121550000000     0.0393971  
H146     H      0.380820000000     0.964190000000     0.119650000000     0.0393622  
H147     H      0.332850000000     0.942400000000     0.161070000000     0.0430709  
H148     H      0.343970000000     0.079230000000     0.102100000000     0.0435481  
H149     H      0.336170000000     0.079770000000     0.159960000000     0.0433015  
H150     H      0.291620000000     0.054890000000     0.140600000000     0.0384759  
H151     H      0.334050000000     0.942140000000     0.101390000000     0.0429794  
H152     H      0.288360000000     0.968610000000     0.142730000000     0.0393459  
H153     H      0.176040000000     0.003310000000     0.460990000000     0.0367587  
H154     H      0.171640000000     0.068450000000     0.002910000000     0.0400005  
H155     H      0.130960000000     0.047160000000     0.050100000000     0.0412823  
H156     H      0.210540000000     0.959820000000     0.471180000000     0.0404201  
H157     H      0.131480000000     0.946500000000     0.480990000000     0.0415757  
H158     H      0.165240000000     0.939430000000     0.514830000000     0.039895   
H159     H      0.206930000000     0.064790000000     0.036570000000     0.0399894  
H160     H      0.167010000000     0.003220000000     0.057220000000     0.0412364  
H161     H      0.948130000000     0.377420000000     0.847690000000     0.0388101  
H162     H      0.033380000000     0.380890000000     0.849480000000     0.0395582  
H163     H      0.062470000000     0.327720000000     0.885810000000     0.0434405  
H164     H      0.924830000000     0.332960000000     0.827280000000     0.0430912  
H165     H      0.925120000000     0.326070000000     0.886790000000     0.0431116  
H166     H      0.950860000000     0.282990000000     0.866360000000     0.0392992  
H167     H      0.062040000000     0.340480000000     0.828160000000     0.0432751  
H168     H      0.036970000000     0.285250000000     0.864490000000     0.0390565  
H169     H      0.960100000000     0.377060000000     0.605200000000     0.0401477  
H170     H      0.045360000000     0.373480000000     0.603170000000     0.0392106  
H171     H      0.068050000000     0.314290000000     0.636150000000     0.0430643  
H172     H      0.931250000000     0.341550000000     0.579640000000     0.0434043  
H173     H      0.930470000000     0.316720000000     0.635090000000     0.0434201  
H174     H      0.956830000000     0.279440000000     0.609460000000     0.0386124  
H175     H      0.068590000000     0.333460000000     0.578190000000     0.0432178  
H176     H      0.041250000000     0.276390000000     0.611270000000     0.0389043  
H177     H      0.007430000000     0.155510000000     0.685610000000     0.0412412  
H178     H      0.071610000000     0.155230000000     0.728040000000     0.0389047  
H179     H      0.050020000000     0.200340000000     0.771510000000     0.0408096  
H180     H      0.964530000000     0.118300000000     0.692860000000     0.0405222  
H181     H      0.944770000000     0.193620000000     0.706490000000     0.040244   
H182     H      0.942630000000     0.158350000000     0.740260000000     0.0399725  
H183     H      0.065180000000     0.121400000000     0.761910000000     0.0402718  
H184     H      0.007410000000     0.164770000000     0.781780000000     0.0392981  
H185     H      0.068770000000     0.162180000000     0.005090000000     0.0382755  
H186     H      0.003640000000     0.170320000000     0.545840000000     0.0407615  
H187     H      0.943840000000     0.209160000000     0.521590000000     0.0400198  
H188     H      0.061950000000     0.124980000000     0.973270000000     0.0409049  
H189     H      0.051240000000     0.203120000000     0.958550000000     0.0413176  
H190     H      0.007330000000     0.168650000000     0.949360000000     0.0395458  
H191     H      0.959060000000     0.134620000000     0.540100000000     0.0406821  
H192     H      0.940430000000     0.170310000000     0.490150000000     0.0406654  
H193     H      0.850870000000     0.002000000000     0.698380000000     0.0400733  
H194     H      0.867880000000     0.065410000000     0.743820000000     0.0367997  
H195     H      0.807900000000     0.057880000000     0.777090000000     0.0414117  
H196     H      0.876010000000     0.951420000000     0.706820000000     0.0387594  
H197     H      0.798550000000     0.948570000000     0.716790000000     0.040717   
H198     H      0.828560000000     0.940670000000     0.752790000000     0.0424818  
H199     H      0.890520000000     0.045000000000     0.779470000000     0.0411998  
H200     H      0.827200000000     0.009390000000     0.794030000000     0.0370284  
H201     H      0.726850000000     0.048140000000     0.864880000000     0.0381442  
H202     H      0.724960000000     0.963250000000     0.863470000000     0.0391468  
H203     H      0.678200000000     0.940380000000     0.905170000000     0.0432586  
H204     H      0.684940000000     0.076150000000     0.844720000000     0.0435606  
H205     H      0.675990000000     0.077460000000     0.902480000000     0.0432876  
H206     H      0.632240000000     0.051360000000     0.882970000000     0.0403263  
H207     H      0.679350000000     0.938800000000     0.845280000000     0.0429139  
H208     H      0.632350000000     0.963320000000     0.886370000000     0.0397524  
H209     H      0.707450000000     0.967760000000     0.627990000000     0.0398077  
H210     H      0.716380000000     0.053740000000     0.630390000000     0.0391897  
H211     H      0.663230000000     0.084930000000     0.595680000000     0.0429002  
H212     H      0.665760000000     0.945080000000     0.651790000000     0.043102   
H213     H      0.645840000000     0.948330000000     0.595270000000     0.0432363  
H214     H      0.611120000000     0.979840000000     0.619610000000     0.0393719  
H215     H      0.678300000000     0.082070000000     0.654110000000     0.0435114  
H216     H      0.620340000000     0.063170000000     0.618830000000     0.0384399  
H217     H      0.819700000000     0.007400000000     0.555170000000     0.0362947  
H218     H      0.828000000000     0.073430000000     0.513790000000     0.0408871  
H219     H      0.878540000000     0.056180000000     0.971130000000     0.039429   
H220     H      0.792420000000     0.961180000000     0.540620000000     0.0406349  
H221     H      0.874060000000     0.957150000000     0.041070000000     0.0415529  
H222     H      0.848710000000     0.945100000000     0.004180000000     0.0384888  
H223     H      0.799850000000     0.067470000000     0.476790000000     0.0402246  
H224     H      0.847960000000     0.009440000000     0.960570000000     0.0413937  
H225     H      0.955800000000     0.492460000000     0.700880000000     0.0392298  
H226     H      0.038810000000     0.491050000000     0.698350000000     0.0388534  
H227     H      0.068670000000     0.526450000000     0.744830000000     0.0431853  
H228     H      0.929130000000     0.454360000000     0.725740000000     0.0432193  
H229     H      0.930970000000     0.526740000000     0.749710000000     0.0435366  
H230     H      0.958910000000     0.488140000000     0.773280000000     0.039862   
H231     H      0.066850000000     0.452750000000     0.722140000000     0.0431823  
H232     H      0.043800000000     0.488420000000     0.770720000000     0.0396987  
H233     H      0.069090000000     0.838470000000     0.742460000000     0.0378835  
H234     H      0.007270000000     0.829270000000     0.696690000000     0.0425201  
H235     H      0.948340000000     0.783200000000     0.714770000000     0.0395851  
H236     H      0.053080000000     0.867850000000     0.776740000000     0.0398054  
H237     H      0.051830000000     0.785610000000     0.780990000000     0.0407443  
H238     H      0.004710000000     0.813420000000     0.793070000000     0.0387967  
H239     H      0.959700000000     0.860620000000     0.703070000000     0.0381843  
H240     H      0.940390000000     0.816400000000     0.749180000000     0.0419871  
H241     H      0.954780000000     0.504060000000     0.024460000000     0.0397622  
H242     H      0.040010000000     0.501970000000     0.524890000000     0.0397363  
H243     H      0.066530000000     0.462830000000     0.478830000000     0.0432989  
H244     H      0.929790000000     0.540180000000     0.997180000000     0.0437099  
H245     H      0.928850000000     0.464260000000     0.978770000000     0.0432524  
H246     H      0.955960000000     0.499560000000     0.952050000000     0.0391112  
H247     H      0.067410000000     0.537560000000     0.498550000000     0.043482   
H248     H      0.040150000000     0.499140000000     0.452430000000     0.0393715  
H249     H      0.046350000000     0.707730000000     0.880090000000     0.0390966  
H250     H      0.961140000000     0.712670000000     0.880610000000     0.0387991  
H251     H      0.931220000000     0.658160000000     0.846240000000     0.0431392  
H252     H      0.070240000000     0.665860000000     0.903130000000     0.0428602  
H253     H      0.068530000000     0.649860000000     0.845400000000     0.0435604  
H254     H      0.040310000000     0.611310000000     0.868790000000     0.0392899  
H255     H      0.932940000000     0.674120000000     0.903980000000     0.0435596  
H256     H      0.955100000000     0.616290000000     0.869260000000     0.039557   
H257     H      0.958090000000     0.614330000000     0.630140000000     0.039423   
H258     H      0.043640000000     0.614590000000     0.630860000000     0.0391798  
H259     H      0.069700000000     0.670570000000     0.596110000000     0.0433853  
H260     H      0.931640000000     0.654610000000     0.653140000000     0.0431474  
H261     H      0.932170000000     0.670600000000     0.595450000000     0.0431046  
H262     H      0.958100000000     0.710950000000     0.618740000000     0.0390226  
H263     H      0.069170000000     0.655240000000     0.654020000000     0.0432643  
H264     H      0.043400000000     0.711000000000     0.618970000000     0.0389442  
H265     H      0.997100000000     0.828860000000     0.957660000000     0.039723   
H266     H      0.063080000000     0.829420000000     0.999910000000     0.041696   
H267     H      0.044820000000     0.871530000000     0.547190000000     0.0401126  
H268     H      0.951220000000     0.798320000000     0.968920000000     0.0410673  
H269     H      0.945520000000     0.879010000000     0.977450000000     0.0405791  
H270     H      0.934770000000     0.846500000000     0.511420000000     0.038335   
H271     H      0.056790000000     0.794530000000     0.533590000000     0.039823   
H272     H      0.998180000000     0.838890000000     0.554090000000     0.0414239  
H273     H      0.512080000000     0.973920000000     0.719540000000     0.0403466  
H274     H      0.516070000000     0.060410000000     0.720260000000     0.0390647  
H275     H      0.465290000000     0.084640000000     0.759280000000     0.043019   
H276     H      0.542280000000     0.946470000000     0.749310000000     0.0435434  
H277     H      0.465320000000     0.947250000000     0.761370000000     0.0433405  
H278     H      0.496120000000     0.974190000000     0.791070000000     0.0400573  
H279     H      0.545550000000     0.083710000000     0.752270000000     0.0428541  
H280     H      0.494180000000     0.059680000000     0.790880000000     0.0386993  
H281     H      0.165370000000     0.060450000000     0.746080000000     0.0400262  
H282     H      0.164150000000     0.991770000000     0.784000000000     0.0436819  
H283     H      0.137140000000     0.930270000000     0.754630000000     0.0362651  
H284     H      0.208770000000     0.063570000000     0.718140000000     0.0401399  
H285     H      0.138620000000     0.039780000000     0.693680000000     0.0376532  
H286     H      0.181460000000     0.001670000000     0.689010000000     0.0398575  
H287     H      0.206550000000     0.953790000000     0.779420000000     0.0412814  
H288     H      0.180500000000     0.934290000000     0.726840000000     0.0402218  
H289     H      0.504530000000     0.969590000000     0.963920000000     0.0394292  
H290     H      0.504070000000     0.052780000000     0.962430000000     0.0386792  
H291     H      0.465840000000     0.082130000000     0.508090000000     0.0433386  
H292     H      0.540330000000     0.943330000000     0.990830000000     0.0429897  
H293     H      0.465120000000     0.944140000000     0.010150000000     0.043187   
H294     H      0.501110000000     0.971330000000     0.536350000000     0.0397083  
H295     H      0.540180000000     0.081240000000     0.487780000000     0.043319   
H296     H      0.501870000000     0.055960000000     0.534860000000     0.0394931  
H297     H      0.385330000000     0.978080000000     0.886120000000     0.0400964  
H298     H      0.380690000000     0.063170000000     0.888050000000     0.0386609  
H299     H      0.325230000000     0.085500000000     0.851750000000     0.0431921  
H300     H      0.347500000000     0.948640000000     0.909390000000     0.043304   
H301     H      0.329070000000     0.947820000000     0.852740000000     0.0431865  
H302     H      0.288640000000     0.973480000000     0.876050000000     0.0392453  
H303     H      0.337840000000     0.086020000000     0.910580000000     0.0432081  
H304     H      0.284890000000     0.058370000000     0.874240000000     0.0388073  
H305     H      0.385790000000     0.050150000000     0.621550000000     0.0394049  
H306     H      0.380820000000     0.964190000000     0.619650000000     0.0393727  
H307     H      0.332850000000     0.942400000000     0.661070000000     0.0430816  
H308     H      0.343970000000     0.079230000000     0.602100000000     0.0435649  
H309     H      0.336170000000     0.079770000000     0.659960000000     0.0433115  
H310     H      0.291620000000     0.054890000000     0.640600000000     0.0384818  
H311     H      0.334050000000     0.942140000000     0.601390000000     0.0429963  
H312     H      0.288360000000     0.968610000000     0.642730000000     0.0393551  
H313     H      0.176040000000     0.003310000000     0.960990000000     0.0368327  
H314     H      0.171640000000     0.068450000000     0.502910000000     0.040102   
H315     H      0.130960000000     0.047160000000     0.550100000000     0.0412928  
H316     H      0.210540000000     0.959820000000     0.971180000000     0.0405427  
H317     H      0.131480000000     0.946500000000     0.980990000000     0.0414877  
H318     H      0.165240000000     0.939430000000     0.014830000000     0.0394599  
H319     H      0.206930000000     0.064790000000     0.536570000000     0.0400037  
H320     H      0.167010000000     0.003220000000     0.557220000000     0.0412472  
N1       N      0.993760000000     0.324050000000     0.389940000000    -0.169494   
N2       N      0.993280000000     0.338870000000     0.324090000000    -0.169586   
N3       N      0.999280000000     0.313470000000     0.139060000000    -0.169801   
N4       N      0.000080000000     0.340270000000     0.075530000000    -0.169801   
N5       N      0.995490000000     0.200330000000     0.240430000000    -0.171042   
N6       N      0.016770000000     0.116510000000     0.225870000000    -0.171204   
N7       N      0.995430000000     0.209330000000     0.488030000000    -0.170907   
N8       N      0.011990000000     0.126510000000     0.508300000000    -0.170564   
N9       N      0.798810000000     0.001100000000     0.249410000000    -0.170756   
N10      N      0.887680000000     0.001470000000     0.240330000000    -0.173331   
N11      N      0.672930000000     0.008930000000     0.407480000000    -0.171083   
N12      N      0.683610000000     0.007220000000     0.341390000000    -0.171213   
N13      N      0.653460000000     0.016920000000     0.092050000000    -0.171406   
N14      N      0.675360000000     0.013190000000     0.156290000000    -0.171027   
N15      N      0.880000000000     0.004550000000     0.504420000000    -0.171207   
N16      N      0.792300000000     0.016330000000     0.510210000000    -0.17218    
N17      N      0.000010000000     0.530790000000     0.249260000000    -0.170842   
N18      N      0.997900000000     0.449070000000     0.223120000000    -0.170969   
N19      N      0.997700000000     0.780760000000     0.249930000000    -0.170364   
N20      N      0.009010000000     0.867740000000     0.237750000000    -0.170321   
N21      N      0.997640000000     0.459040000000     0.477390000000    -0.170131   
N22      N      0.998580000000     0.543240000000     0.499940000000    -0.170158   
N23      N      0.999600000000     0.651640000000     0.342410000000    -0.170419   
N24      N      0.001890000000     0.672360000000     0.406960000000    -0.170662   
N25      N      0.000930000000     0.672910000000     0.092370000000    -0.170508   
N26      N      0.000380000000     0.652390000000     0.156990000000    -0.170554   
N27      N      0.993700000000     0.878540000000     0.513780000000    -0.170791   
N28      N      0.006190000000     0.793090000000     0.499270000000    -0.171239   
N29      N      0.460450000000     0.016080000000     0.262170000000    -0.169978   
N30      N      0.548730000000     0.015220000000     0.248270000000    -0.169857   
N31      N      0.135120000000     0.983720000000     0.222800000000    -0.170176   
N32      N      0.210570000000     0.010650000000     0.250680000000    -0.17156    
N33      N      0.461180000000     0.013210000000     0.010590000000    -0.172467   
N34      N      0.544690000000     0.012220000000     0.988750000000    -0.172644   
N35      N      0.325240000000     0.016670000000     0.348830000000    -0.17166    
N36      N      0.344780000000     0.017520000000     0.413390000000    -0.171771   
N37      N      0.331910000000     0.011120000000     0.164130000000    -0.171744   
N38      N      0.341380000000     0.010420000000     0.098130000000    -0.1717     
N39      N      0.127840000000     0.995190000000     0.516920000000    -0.169342   
N40      N      0.212050000000     0.014400000000     0.502240000000    -0.172412   
N41      N      0.993760000000     0.324050000000     0.889940000000    -0.169495   
N42      N      0.993280000000     0.338870000000     0.824090000000    -0.169587   
N43      N      0.999280000000     0.313470000000     0.639060000000    -0.169797   
N44      N      0.000080000000     0.340270000000     0.575530000000    -0.169764   
N45      N      0.995490000000     0.200330000000     0.740430000000    -0.171042   
N46      N      0.016770000000     0.116510000000     0.725870000000    -0.171202   
N47      N      0.995430000000     0.209330000000     0.988030000000    -0.170606   
N48      N      0.011990000000     0.126510000000     0.008300000000    -0.170791   
N49      N      0.798810000000     0.001100000000     0.749410000000    -0.170755   
N50      N      0.887680000000     0.001470000000     0.740330000000    -0.173335   
N51      N      0.672930000000     0.008930000000     0.907480000000    -0.171071   
N52      N      0.683610000000     0.007220000000     0.841390000000    -0.171209   
N53      N      0.653460000000     0.016920000000     0.592050000000    -0.1714     
N54      N      0.675360000000     0.013190000000     0.656290000000    -0.171093   
N55      N      0.880000000000     0.004550000000     0.004420000000    -0.171346   
N56      N      0.792300000000     0.016330000000     0.010210000000    -0.17243    
N57      N      0.000010000000     0.530790000000     0.749260000000    -0.17084    
N58      N      0.997900000000     0.449070000000     0.723120000000    -0.170968   
N59      N      0.997700000000     0.780760000000     0.749930000000    -0.170364   
N60      N      0.009010000000     0.867740000000     0.737750000000    -0.170317   
N61      N      0.997640000000     0.459040000000     0.977400000000    -0.170241   
N62      N      0.998580000000     0.543240000000     0.999940000000    -0.169641   
N63      N      0.999600000000     0.651640000000     0.842410000000    -0.170419   
N64      N      0.001890000000     0.672360000000     0.906960000000    -0.170579   
N65      N      0.000930000000     0.672910000000     0.592370000000    -0.17049    
N66      N      0.000380000000     0.652390000000     0.656990000000    -0.170544   
N67      N      0.993700000000     0.878540000000     0.013780000000    -0.171028   
N68      N      0.006190000000     0.793090000000     0.999270000000    -0.170985   
N69      N      0.460450000000     0.016080000000     0.762170000000    -0.169977   
N70      N      0.548730000000     0.015220000000     0.748270000000    -0.169849   
N71      N      0.135120000000     0.983720000000     0.722800000000    -0.170173   
N72      N      0.210570000000     0.010650000000     0.750680000000    -0.171566   
N73      N      0.461180000000     0.013210000000     0.510590000000    -0.172517   
N74      N      0.544690000000     0.012220000000     0.488750000000    -0.172616   
N75      N      0.325240000000     0.016670000000     0.848830000000    -0.171656   
N76      N      0.344780000000     0.017520000000     0.913390000000    -0.171745   
N77      N      0.331910000000     0.011120000000     0.664130000000    -0.171744   
N78      N      0.341380000000     0.010420000000     0.598130000000    -0.171713   
N79      N      0.127840000000     0.995190000000     0.016920000000    -0.169535   
N80      N      0.212050000000     0.014400000000     0.002240000000    -0.172566   
Ni1      Ni     0.336730000000     0.051830000000     0.506740000000     1.00256    
Ni2      Ni     0.336530000000     0.975930000000     0.504850000000     1.00531    
Ni3      Ni     0.334400000000     0.051950000000     0.255610000000     0.988948   
Ni4      Ni     0.335810000000     0.976090000000     0.257400000000     1.00632    
Ni5      Ni     0.039740000000     0.667400000000     0.500060000000     1.00008    
Ni6      Ni     0.963860000000     0.669670000000     0.999270000000     1.00002    
Ni7      Ni     0.037450000000     0.656210000000     0.250010000000     0.996663   
Ni8      Ni     0.961560000000     0.655570000000     0.249400000000     1.001      
Ni9      Ni     0.668100000000     0.051490000000     0.498880000000     1.00199    
Ni10     Ni     0.668840000000     0.975600000000     0.001060000000     1.0005     
Ni11     Ni     0.676280000000     0.047490000000     0.249930000000     0.986591   
Ni12     Ni     0.672090000000     0.971750000000     0.248180000000     1.00283    
Ni13     Ni     0.006230000000     0.001100000000     0.483050000000     0.987731   
Ni14     Ni     0.001570000000     0.003540000000     0.038760000000     0.986031   
Ni15     Ni     0.007160000000     0.989940000000     0.203920000000     0.999563   
Ni16     Ni     0.016000000000     0.994420000000     0.259720000000     0.99949    
Ni17     Ni     0.958740000000     0.334320000000     0.483580000000     0.992522   
Ni18     Ni     0.034560000000     0.333510000000     0.981750000000     0.995839   
Ni19     Ni     0.958630000000     0.324770000000     0.230810000000     0.997168   
Ni20     Ni     0.034460000000     0.324300000000     0.232570000000     0.993761   
Ni21     Ni     0.336730000000     0.051830000000     0.006730000000     1.00239    
Ni22     Ni     0.336530000000     0.975930000000     0.004840000000     1.00488    
Ni23     Ni     0.334400000000     0.051950000000     0.755610000000     0.988956   
Ni24     Ni     0.335810000000     0.976090000000     0.757400000000     1.00634    
Ni25     Ni     0.039740000000     0.667400000000     0.000060000000     0.99876    
Ni26     Ni     0.963860000000     0.669670000000     0.499270000000     0.998481   
Ni27     Ni     0.037450000000     0.656210000000     0.750010000000     0.996685   
Ni28     Ni     0.961560000000     0.655570000000     0.749400000000     1.001      
Ni29     Ni     0.668100000000     0.051490000000     0.998880000000     1.00347    
Ni30     Ni     0.668840000000     0.975600000000     0.501070000000     1.00187    
Ni31     Ni     0.676280000000     0.047490000000     0.749930000000     0.986589   
Ni32     Ni     0.672090000000     0.971750000000     0.748180000000     1.00285    
Ni33     Ni     0.006230000000     0.001100000000     0.983050000000     0.988034   
Ni34     Ni     0.001570000000     0.003540000000     0.538760000000     0.986456   
Ni35     Ni     0.007160000000     0.989940000000     0.703920000000     0.99957    
Ni36     Ni     0.016000000000     0.994420000000     0.759720000000     0.9995     
Ni37     Ni     0.958740000000     0.334320000000     0.983580000000     0.992965   
Ni38     Ni     0.034560000000     0.333510000000     0.481750000000     0.995373   
Ni39     Ni     0.958630000000     0.324770000000     0.730810000000     0.997173   
Ni40     Ni     0.034460000000     0.324300000000     0.732570000000     0.993772   
O1       O      0.275630000000     0.049510000000     0.007050000000    -0.450538   
O2       O      0.397630000000     0.049000000000     0.507030000000    -0.453152   
O3       O      0.337320000000     0.051220000000     0.461340000000    -0.450688   
O4       O      0.337070000000     0.047460000000     0.051640000000    -0.45462    
O5       O      0.333620000000     0.976630000000     0.050210000000    -0.448472   
O6       O      0.340470000000     0.980380000000     0.459930000000    -0.452017   
O7       O      0.397270000000     0.978060000000     0.007750000000    -0.452304   
O8       O      0.275650000000     0.978820000000     0.501600000000    -0.449737   
O9       O      0.273420000000     0.048010000000     0.251640000000    -0.446151   
O10      O      0.395700000000     0.050750000000     0.259020000000    -0.444587   
O11      O      0.338300000000     0.047760000000     0.210720000000    -0.452038   
O12      O      0.329660000000     0.051030000000     0.300900000000    -0.44871    
O13      O      0.334250000000     0.980270000000     0.302370000000    -0.452567   
O14      O      0.336230000000     0.976880000000     0.212050000000    -0.449777   
O15      O      0.396890000000     0.979860000000     0.258300000000    -0.447863   
O16      O      0.274810000000     0.977320000000     0.256880000000    -0.449756   
O17      O      0.037420000000     0.668890000000     0.454560000000    -0.448718   
O18      O      0.036760000000     0.666710000000     0.045260000000    -0.450504   
O19      O      0.035470000000     0.606470000000     0.499190000000    -0.451716   
O20      O      0.039250000000     0.728350000000     0.001520000000    -0.452576   
O21      O      0.968430000000     0.730700000000     0.497580000000    -0.449351   
O22      O      0.964620000000     0.608350000000     0.000340000000    -0.44934    
O23      O      0.966000000000     0.671300000000     0.044620000000    -0.450903   
O24      O      0.966520000000     0.668490000000     0.454230000000    -0.45294    
O25      O      0.035180000000     0.657640000000     0.204660000000    -0.450448   
O26      O      0.034900000000     0.654060000000     0.295050000000    -0.452796   
O27      O      0.035370000000     0.595030000000     0.248640000000    -0.449556   
O28      O      0.034180000000     0.717480000000     0.251970000000    -0.447146   
O29      O      0.963390000000     0.716580000000     0.247670000000    -0.451396   
O30      O      0.964520000000     0.594690000000     0.250530000000    -0.452983   
O31      O      0.964060000000     0.656780000000     0.294900000000    -0.448816   
O32      O      0.964380000000     0.653890000000     0.204220000000    -0.451226   
O33      O      0.672130000000     0.046690000000     0.453920000000    -0.451562   
O34      O      0.663480000000     0.050920000000     0.044310000000    -0.448386   
O35      O      0.728880000000     0.050040000000     0.501730000000    -0.453018   
O36      O      0.607540000000     0.048180000000     0.995420000000    -0.45488    
O37      O      0.608350000000     0.977240000000     0.495150000000    -0.450396   
O38      O      0.729420000000     0.979380000000     0.007340000000    -0.44747    
O39      O      0.660850000000     0.980050000000     0.045650000000    -0.451479   
O40      O      0.675830000000     0.975900000000     0.455970000000    -0.448042   
O41      O      0.677300000000     0.046750000000     0.204570000000    -0.448822   
O42      O      0.675730000000     0.043530000000     0.294850000000    -0.452353   
O43      O      0.737490000000     0.041220000000     0.251230000000    -0.443179   
O44      O      0.614640000000     0.048220000000     0.249140000000    -0.442303   
O45      O      0.611370000000     0.977400000000     0.249950000000    -0.449202   
O46      O      0.732890000000     0.970680000000     0.245980000000    -0.450498   
O47      O      0.675280000000     0.972620000000     0.293690000000    -0.445529   
O48      O      0.670050000000     0.976230000000     0.203030000000    -0.448633   
O49      O      0.066120000000     0.990660000000     0.488290000000    -0.446055   
O50      O      0.945960000000     0.011400000000     0.482040000000    -0.446456   
O51      O      0.016730000000     0.061370000000     0.484190000000    -0.447203   
O52      O      0.995150000000     0.941110000000     0.486170000000    -0.446047   
O53      O      0.005110000000     0.942450000000     0.038310000000    -0.445369   
O54      O      0.998280000000     0.064500000000     0.034970000000    -0.445877   
O55      O      0.940930000000     0.999430000000     0.033800000000    -0.443646   
O56      O      0.062620000000     0.007100000000     0.039440000000    -0.448495   
O57      O      0.068600000000     0.990800000000     0.201150000000    -0.445326   
O58      O      0.947040000000     0.989560000000     0.210510000000    -0.452462   
O59      O      0.006300000000     0.051090000000     0.203280000000    -0.451495   
O60      O      0.007100000000     0.929030000000     0.208500000000    -0.448389   
O61      O      0.010600000000     0.933510000000     0.261070000000    -0.448049   
O62      O      0.022720000000     0.054850000000     0.254440000000    -0.45129    
O63      O      0.954900000000     0.001980000000     0.262040000000    -0.449321   
O64      O      0.075700000000     0.986630000000     0.253520000000    -0.452106   
O65      O      0.959540000000     0.328910000000     0.438120000000    -0.445227   
O66      O      0.963120000000     0.339380000000     0.028630000000    -0.449056   
O67      O      0.961670000000     0.395240000000     0.479680000000    -0.449116   
O68      O      0.960750000000     0.273490000000     0.987980000000    -0.449448   
O69      O      0.031420000000     0.272410000000     0.482760000000    -0.449409   
O70      O      0.032550000000     0.394670000000     0.980290000000    -0.449344   
O71      O      0.033870000000     0.335500000000     0.027280000000    -0.44742    
O72      O      0.030350000000     0.331330000000     0.436640000000    -0.44998    
O73      O      0.962750000000     0.320540000000     0.185780000000    -0.45026    
O74      O      0.959420000000     0.329240000000     0.276240000000    -0.446981   
O75      O      0.961780000000     0.385670000000     0.227710000000    -0.451063   
O76      O      0.960650000000     0.263720000000     0.233430000000    -0.449877   
O77      O      0.031320000000     0.263790000000     0.238750000000    -0.449864   
O78      O      0.032670000000     0.384870000000     0.226860000000    -0.45102    
O79      O      0.030230000000     0.332080000000     0.277430000000    -0.448721   
O80      O      0.033510000000     0.316820000000     0.187290000000    -0.445758   
O81      O      0.275630000000     0.049510000000     0.507050000000    -0.450494   
O82      O      0.397630000000     0.049000000000     0.007030000000    -0.453192   
O83      O      0.337320000000     0.051220000000     0.961350000000    -0.450547   
O84      O      0.337070000000     0.047460000000     0.551640000000    -0.454783   
O85      O      0.333620000000     0.976630000000     0.550210000000    -0.448657   
O86      O      0.340470000000     0.980380000000     0.959930000000    -0.451791   
O87      O      0.397270000000     0.978060000000     0.507750000000    -0.452291   
O88      O      0.275650000000     0.978820000000     0.001600000000    -0.449827   
O89      O      0.273420000000     0.048010000000     0.751640000000    -0.446157   
O90      O      0.395700000000     0.050750000000     0.759020000000    -0.44458    
O91      O      0.338300000000     0.047760000000     0.710720000000    -0.452031   
O92      O      0.329660000000     0.051030000000     0.800900000000    -0.448706   
O93      O      0.334250000000     0.980270000000     0.802370000000    -0.452572   
O94      O      0.336230000000     0.976880000000     0.712050000000    -0.449758   
O95      O      0.396890000000     0.979860000000     0.758300000000    -0.447856   
O96      O      0.274810000000     0.977320000000     0.756870000000    -0.449771   
O97      O      0.037420000000     0.668890000000     0.954560000000    -0.448461   
O98      O      0.036760000000     0.666710000000     0.545260000000    -0.450583   
O99      O      0.035470000000     0.606470000000     0.999190000000    -0.451382   
O100     O      0.039250000000     0.728350000000     0.501520000000    -0.45228    
O101     O      0.968430000000     0.730700000000     0.997590000000    -0.449529   
O102     O      0.964620000000     0.608350000000     0.500340000000    -0.448583   
O103     O      0.966000000000     0.671300000000     0.544620000000    -0.450529   
O104     O      0.966520000000     0.668490000000     0.954230000000    -0.453163   
O105     O      0.035180000000     0.657640000000     0.704660000000    -0.450453   
O106     O      0.034900000000     0.654060000000     0.795050000000    -0.452776   
O107     O      0.035370000000     0.595030000000     0.748650000000    -0.449561   
O108     O      0.034180000000     0.717480000000     0.751970000000    -0.44714    
O109     O      0.963390000000     0.716580000000     0.747670000000    -0.45139    
O110     O      0.964520000000     0.594690000000     0.750530000000    -0.452983   
O111     O      0.964060000000     0.656780000000     0.794900000000    -0.448806   
O112     O      0.964380000000     0.653890000000     0.704220000000    -0.45122    
O113     O      0.672130000000     0.046690000000     0.953920000000    -0.451682   
O114     O      0.663480000000     0.050920000000     0.544310000000    -0.448034   
O115     O      0.728880000000     0.050040000000     0.001730000000    -0.453466   
O116     O      0.607540000000     0.048180000000     0.495420000000    -0.454817   
O117     O      0.608350000000     0.977240000000     0.995150000000    -0.450014   
O118     O      0.729420000000     0.979380000000     0.507340000000    -0.447543   
O119     O      0.660850000000     0.980050000000     0.545650000000    -0.451684   
O120     O      0.675830000000     0.975900000000     0.955970000000    -0.447793   
O121     O      0.677300000000     0.046750000000     0.704570000000    -0.448725   
O122     O      0.675730000000     0.043530000000     0.794850000000    -0.45235    
O123     O      0.737490000000     0.041220000000     0.751230000000    -0.443174   
O124     O      0.614640000000     0.048220000000     0.749140000000    -0.442297   
O125     O      0.611370000000     0.977400000000     0.749940000000    -0.449203   
O126     O      0.732890000000     0.970680000000     0.745980000000    -0.450493   
O127     O      0.675280000000     0.972620000000     0.793690000000    -0.445534   
O128     O      0.670050000000     0.976230000000     0.703030000000    -0.448531   
O129     O      0.066120000000     0.990660000000     0.988290000000    -0.445676   
O130     O      0.945960000000     0.011400000000     0.982040000000    -0.446159   
O131     O      0.016730000000     0.061370000000     0.984190000000    -0.446833   
O132     O      0.995150000000     0.941110000000     0.986170000000    -0.445584   
O133     O      0.005110000000     0.942450000000     0.538310000000    -0.445379   
O134     O      0.998280000000     0.064500000000     0.534970000000    -0.445995   
O135     O      0.940930000000     0.999430000000     0.533810000000    -0.443589   
O136     O      0.062620000000     0.007100000000     0.539440000000    -0.448628   
O137     O      0.068600000000     0.990800000000     0.701150000000    -0.445325   
O138     O      0.947040000000     0.989560000000     0.710510000000    -0.452465   
O139     O      0.006300000000     0.051090000000     0.703280000000    -0.451497   
O140     O      0.007100000000     0.929030000000     0.708500000000    -0.448387   
O141     O      0.010600000000     0.933510000000     0.761070000000    -0.448047   
O142     O      0.022720000000     0.054850000000     0.754440000000    -0.45129    
O143     O      0.954900000000     0.001980000000     0.762040000000    -0.449327   
O144     O      0.075700000000     0.986630000000     0.753520000000    -0.452105   
O145     O      0.959540000000     0.328910000000     0.938120000000    -0.445288   
O146     O      0.963120000000     0.339380000000     0.528630000000    -0.448728   
O147     O      0.961670000000     0.395240000000     0.979680000000    -0.449098   
O148     O      0.960750000000     0.273490000000     0.487980000000    -0.449546   
O149     O      0.031420000000     0.272410000000     0.982760000000    -0.449347   
O150     O      0.032550000000     0.394670000000     0.480290000000    -0.449371   
O151     O      0.033870000000     0.335500000000     0.527280000000    -0.447085   
O152     O      0.030350000000     0.331330000000     0.936640000000    -0.450043   
O153     O      0.962750000000     0.320540000000     0.685780000000    -0.450253   
O154     O      0.959420000000     0.329240000000     0.776240000000    -0.446976   
O155     O      0.961780000000     0.385670000000     0.727710000000    -0.451057   
O156     O      0.960650000000     0.263720000000     0.733430000000    -0.449873   
O157     O      0.031320000000     0.263790000000     0.738750000000    -0.449858   
O158     O      0.032670000000     0.384870000000     0.726860000000    -0.451012   
O159     O      0.030230000000     0.332080000000     0.777430000000    -0.448714   
O160     O      0.033510000000     0.316820000000     0.687290000000    -0.445749   


