data_structure

_audit_creation_method RASPA-1.0
_audit_creation_date 2023-5-22
_audit_author_name 'Poobodin Mano'

_cell_length_a    42.0649
_cell_length_b    42.0322
_cell_length_c    31.4317
_cell_angle_alpha 89.9995
_cell_angle_beta  90.0009
_cell_angle_gamma 120
_cell_volume      48128.3

_symmetry_cell_setting          triclinic
_symmetry_space_group_name_Hall 'P 1'
_symmetry_space_group_name_H-M  'P 1'
_symmetry_Int_Tables_number     1

_symmetry_equiv_pos_as_xyz 'x,y,z'

loop_
_atom_site_label
_atom_site_type_symbol
_atom_site_fract_x
_atom_site_fract_y
_atom_site_fract_z
_atom_site_charge
C1       C      0.986980000000     0.999030000000     0.242030000000     0.424624   
C2       C      0.996020000000     0.513150000000     0.403430000000     0.423126   
C3       C      0.052230000000     0.067120000000     0.314430000000     0.430987   
C4       C      0.431320000000     0.446020000000     0.327380000000     0.4303     
C5       C      0.438810000000     0.203490000000     0.355570000000     0.427466   
C6       C      0.060290000000     0.323620000000     0.336940000000     0.426927   
C7       C      0.505330000000     0.271350000000     0.427360000000     0.429767   
C8       C      0.492960000000     0.255970000000     0.266320000000     0.430332   
C9       C      0.312780000000     0.074680000000     0.330310000000     0.427487   
C10      C      0.191900000000     0.453030000000     0.341170000000     0.426844   
C11      C      0.250290000000     0.007560000000     0.254910000000     0.42775    
C12      C      0.255080000000     0.020570000000     0.416560000000     0.429205   
C13      C      0.179500000000     0.194350000000     0.336680000000     0.430543   
C14      C      0.300740000000     0.315380000000     0.334450000000     0.430499   
C15      C      0.239340000000     0.252260000000     0.252990000000     0.428031   
C16      C      0.241880000000     0.258040000000     0.415140000000     0.430175   
C17      C      0.061420000000     0.986380000000     0.994980000000     0.426653   
C18      C      0.439810000000     0.985920000000     0.985580000000     0.426913   
C19      C      0.502280000000     0.980800000000     0.909180000000     0.430297   
C20      C      0.500250000000     0.992040000000     0.070350000000     0.430418   
C21      C      0.068010000000     0.253350000000     0.017090000000     0.430582   
C22      C      0.446750000000     0.253050000000     0.014630000000     0.429863   
C23      C      0.509320000000     0.257520000000     0.095440000000     0.430374   
C24      C      0.506190000000     0.248330000000     0.933550000000     0.42793    
C25      C      0.312250000000     0.986490000000     0.010900000000     0.426363   
C26      C      0.191110000000     0.985100000000     0.988870000000     0.427111   
C27      C      0.257710000000     0.980910000000     0.920350000000     0.428602   
C28      C      0.244830000000     0.990300000000     0.080660000000     0.427215   
C29      C      0.196930000000     0.253540000000     0.000670000000     0.428672   
C30      C      0.317860000000     0.253190000000     0.997240000000     0.430307   
C31      C      0.254120000000     0.250430000000     0.919250000000     0.429498   
C32      C      0.260280000000     0.256810000000     0.081380000000     0.427991   
C33      C      0.494070000000     0.991070000000     0.737770000000     0.428835   
C34      C      0.493060000000     0.501450000000     0.577530000000     0.427716   
C35      C      0.493450000000     0.056700000000     0.666790000000     0.427811   
C36      C      0.493870000000     0.436280000000     0.650980000000     0.428722   
C37      C      0.994490000000     0.188330000000     0.675240000000     0.422049   
C38      C      0.995050000000     0.310070000000     0.679920000000     0.423182   
C39      C      0.995450000000     0.249180000000     0.759750000000     0.422663   
C40      C      0.994550000000     0.249860000000     0.597450000000     0.423572   
C41      C      0.249150000000     0.051890000000     0.673910000000     0.428921   
C42      C      0.248230000000     0.430260000000     0.660600000000     0.428005   
C43      C      0.250480000000     0.987600000000     0.747790000000     0.428314   
C44      C      0.247540000000     0.995630000000     0.586030000000     0.428419   
C45      C      0.248280000000     0.180140000000     0.658920000000     0.429227   
C46      C      0.248910000000     0.301360000000     0.675210000000     0.428493   
C47      C      0.242610000000     0.242770000000     0.586650000000     0.430145   
C48      C      0.254730000000     0.237670000000     0.747460000000     0.43027    
C49      C      0.213570000000     0.362240000000     0.655140000000    -0.0106448  
C50      C      0.282440000000     0.396790000000     0.651200000000    -0.0104748  
C51      C      0.215000000000     0.334970000000     0.686260000000    -0.0106945  
C52      C      0.283760000000     0.369310000000     0.682000000000    -0.0105401  
C53      C      0.215060000000     0.085390000000     0.683990000000    -0.0106683  
C54      C      0.283890000000     0.119880000000     0.679700000000    -0.0105926  
C55      C      0.213590000000     0.112210000000     0.652250000000    -0.0103658  
C56      C      0.282370000000     0.146720000000     0.648060000000    -0.0103672  
C57      C      0.459700000000     0.368150000000     0.646850000000    -0.0106291  
C58      C      0.528440000000     0.402840000000     0.644870000000    -0.010369   
C59      C      0.960540000000     0.343690000000     0.682390000000    -0.010983   
C60      C      0.029500000000     0.378290000000     0.680130000000    -0.0079553  
C61      C      0.459700000000     0.121420000000     0.661770000000    -0.0107364  
C62      C      0.028820000000     0.155710000000     0.662040000000    -0.00821412 
C63      C      0.459560000000     0.089130000000     0.684300000000    -0.0105386  
C64      C      0.028390000000     0.123070000000     0.684070000000    -0.00788589 
C65      C      0.219140000000     0.219250000000     0.854500000000    -0.0102055  
C66      C      0.278920000000     0.279300000000     0.849630000000    -0.00990939 
C67      C      0.230210000000     0.205090000000     0.815700000000    -0.009399   
C68      C      0.290920000000     0.263730000000     0.813020000000    -0.0100518  
C69      C      0.280230000000     0.018720000000     0.814620000000    -0.0103078  
C70      C      0.220550000000     0.459850000000     0.815550000000    -0.00994775 
C71      C      0.292760000000     0.006520000000     0.853840000000    -0.00864662 
C72      C      0.235180000000     0.447120000000     0.852560000000    -0.0104375  
C73      C      0.350780000000     0.218260000000     0.991150000000    -0.00913056 
C74      C      0.385420000000     0.287150000000     0.987840000000    -0.00911945 
C75      C      0.379070000000     0.219160000000     0.022340000000    -0.0115895  
C76      C      0.413930000000     0.288160000000     0.018730000000    -0.0114584  
C77      C      0.135760000000     0.288350000000     0.023670000000    -0.0114767  
C78      C      0.101590000000     0.219450000000     0.026970000000    -0.0117828  
C79      C      0.163250000000     0.287490000000     0.992670000000    -0.00916042 
C80      C      0.129100000000     0.218460000000     0.996150000000    -0.00748357 
C81      C      0.037750000000     0.273480000000     0.865190000000    -0.0102368  
C82      C      0.478840000000     0.212850000000     0.867620000000    -0.0101715  
C83      C      0.024500000000     0.283980000000     0.825190000000    -0.00705251 
C84      C      0.464710000000     0.224120000000     0.828740000000    -0.0100758  
C85      C      0.381580000000     0.522370000000     0.014880000000    -0.0119871  
C86      C      0.347600000000     0.453700000000     0.019580000000    -0.0118099  
C87      C      0.405770000000     0.020020000000     0.980520000000    -0.00959469 
C88      C      0.371600000000     0.951110000000     0.985300000000    -0.00961857 
C89      C      0.157980000000     0.018730000000     0.972890000000    -0.00860164 
C90      C      0.124490000000     0.451030000000     0.978930000000    -0.00923419 
C91      C      0.129300000000     0.021010000000     0.000660000000    -0.013941   
C92      C      0.096200000000     0.453220000000     0.007530000000    -0.0129317  
C93      C      0.024130000000     0.020150000000     0.805240000000    -0.00690293 
C94      C      0.463430000000     0.462140000000     0.806790000000    -0.0102942  
C95      C      0.036540000000     0.005740000000     0.842350000000    -0.0082615  
C96      C      0.477100000000     0.447500000000     0.843020000000    -0.0102922  
C97      C      0.267320000000     0.239710000000     0.516810000000    -0.00971381 
C98      C      0.206690000000     0.238070000000     0.522120000000    -0.0102653  
C99      C      0.278250000000     0.266390000000     0.479790000000    -0.00884894 
C100     C      0.217870000000     0.264890000000     0.484460000000    -0.0101703  
C101     C      0.235660000000     0.218030000000     0.187490000000    -0.00984902 
C102     C      0.236320000000     0.278140000000     0.183350000000    -0.0103703  
C103     C      0.262740000000     0.229830000000     0.150420000000    -0.0101251  
C104     C      0.265010000000     0.290760000000     0.147660000000    -0.0104294  
C105     C      0.275800000000     0.496310000000     0.516460000000    -0.00983425 
C106     C      0.214550000000     0.493580000000     0.518860000000    -0.010857   
C107     C      0.289440000000     0.028010000000     0.482880000000    -0.00790434 
C108     C      0.228490000000     0.025280000000     0.485030000000    -0.0102105  
C109     C      0.255800000000     0.535870000000     0.183930000000    -0.011085   
C110     C      0.256140000000     0.976350000000     0.191760000000    -0.00990797 
C111     C      0.236100000000     0.522520000000     0.140960000000    -0.0104406  
C112     C      0.232830000000     0.961640000000     0.151660000000    -0.00981647 
C113     C      0.523250000000     0.247000000000     0.530100000000    -0.00977669 
C114     C      0.964320000000     0.248980000000     0.529720000000    -0.00998509 
C115     C      0.538200000000     0.275300000000     0.494250000000    -0.00941727 
C116     C      0.980350000000     0.278870000000     0.495430000000    -0.0134474  
C117     C      0.405310000000     0.135600000000     0.363880000000    -0.0107459  
C118     C      0.370610000000     0.169550000000     0.358430000000    -0.0106263  
C119     C      0.380980000000     0.108860000000     0.329240000000    -0.0107506  
C120     C      0.346050000000     0.142730000000     0.324000000000    -0.010619   
C121     C      0.127640000000     0.355520000000     0.325060000000    -0.0106934  
C122     C      0.094110000000     0.390860000000     0.323740000000    -0.0106334  
C123     C      0.157910000000     0.385550000000     0.352390000000    -0.0108974  
C124     C      0.124370000000     0.421000000000     0.350860000000    -0.010724   
C125     C      0.987560000000     0.219840000000     0.201840000000    -0.0144078  
C126     C      0.485120000000     0.278300000000     0.196630000000    -0.0101127  
C127     C      0.014250000000     0.232190000000     0.164420000000    -0.00467929 
C128     C      0.513700000000     0.291810000000     0.160990000000    -0.00995588 
C129     C      0.031910000000     0.024110000000     0.468900000000    -0.00608282 
C130     C      0.472460000000     0.024430000000     0.471190000000    -0.00960223 
C131     C      0.021040000000     0.499050000000     0.509740000000    -0.00797088 
C132     C      0.460340000000     0.497720000000     0.510800000000    -0.010069   
C133     C      0.333550000000     0.382660000000     0.344990000000    -0.0103162  
C134     C      0.367830000000     0.348030000000     0.346490000000    -0.0102842  
C135     C      0.364020000000     0.412780000000     0.318360000000    -0.010185   
C136     C      0.398810000000     0.378440000000     0.320590000000    -0.0101661  
C137     C      0.120080000000     0.100170000000     0.307870000000    -0.010282   
C138     C      0.085960000000     0.134850000000     0.305700000000    -0.0101853  
C139     C      0.145720000000     0.126380000000     0.341970000000    -0.0103648  
C140     C      0.111500000000     0.161180000000     0.339700000000    -0.0101704  
C141     C      0.478930000000     0.459980000000     0.179760000000    -0.00915801 
C142     C      0.978800000000     0.018960000000     0.171030000000    -0.0143457  
C143     C      0.504850000000     0.469450000000     0.141960000000    -0.0098896  
C144     C      0.005290000000     0.028990000000     0.133570000000    -0.00453625 
C145     C      0.987070000000     0.499090000000     0.242070000000     0.424967   
C146     C      0.996090000000     0.014730000000     0.403160000000     0.423959   
C147     C      0.052330000000     0.566610000000     0.315070000000     0.430564   
C148     C      0.431180000000     0.946690000000     0.327760000000     0.430184   
C149     C      0.439120000000     0.703370000000     0.355630000000     0.427966   
C150     C      0.060240000000     0.823900000000     0.337270000000     0.426985   
C151     C      0.505320000000     0.771350000000     0.427520000000     0.429936   
C152     C      0.493230000000     0.756120000000     0.266440000000     0.430072   
C153     C      0.313340000000     0.574270000000     0.330350000000     0.427648   
C154     C      0.191420000000     0.953490000000     0.342390000000     0.426729   
C155     C      0.251450000000     0.507720000000     0.254210000000     0.426409   
C156     C      0.255100000000     0.519550000000     0.416090000000     0.42852    
C157     C      0.179700000000     0.694400000000     0.336220000000     0.430323   
C158     C      0.300640000000     0.815770000000     0.334000000000     0.43007    
C159     C      0.239420000000     0.752460000000     0.252480000000     0.428077   
C160     C      0.241890000000     0.758290000000     0.414630000000     0.429976   
C161     C      0.063050000000     0.487460000000     0.995820000000     0.426541   
C162     C      0.441330000000     0.486940000000     0.986570000000     0.426555   
C163     C      0.503600000000     0.481490000000     0.910080000000     0.430012   
C164     C      0.502220000000     0.493480000000     0.071250000000     0.430363   
C165     C      0.068130000000     0.753620000000     0.016990000000     0.4304     
C166     C      0.446850000000     0.753320000000     0.014690000000     0.42999    
C167     C      0.509470000000     0.757750000000     0.095470000000     0.430264   
C168     C      0.506250000000     0.748660000000     0.933570000000     0.428271   
C169     C      0.313390000000     0.487340000000     0.010520000000     0.426177   
C170     C      0.192230000000     0.485930000000     0.987930000000     0.427137   
C171     C      0.259020000000     0.481930000000     0.919600000000     0.42826    
C172     C      0.245610000000     0.490840000000     0.080020000000     0.426832   
C173     C      0.197020000000     0.753740000000     0.000170000000     0.428663   
C174     C      0.317960000000     0.753400000000     0.996810000000     0.430238   
C175     C      0.254210000000     0.750590000000     0.918740000000     0.429385   
C176     C      0.260370000000     0.757050000000     0.080870000000     0.427771   
C177     C      0.494360000000     0.491780000000     0.739280000000     0.429045   
C178     C      0.492490000000     0.001220000000     0.576160000000     0.428744   
C179     C      0.493800000000     0.557100000000     0.667850000000     0.427903   
C180     C      0.493370000000     0.935860000000     0.649220000000     0.429017   
C181     C      0.994530000000     0.688570000000     0.675640000000     0.422178   
C182     C      0.994760000000     0.810150000000     0.679610000000     0.42295    
C183     C      0.995340000000     0.749560000000     0.759830000000     0.422688   
C184     C      0.994410000000     0.749770000000     0.597530000000     0.424047   
C185     C      0.248690000000     0.551690000000     0.672320000000     0.428862   
C186     C      0.248610000000     0.930540000000     0.660050000000     0.428202   
C187     C      0.250360000000     0.488380000000     0.747380000000     0.427847   
C188     C      0.246710000000     0.494240000000     0.585340000000     0.428094   
C189     C      0.248040000000     0.680250000000     0.658180000000     0.428992   
C190     C      0.249000000000     0.801610000000     0.674680000000     0.428384   
C191     C      0.242550000000     0.743000000000     0.586100000000     0.43013    
C192     C      0.254660000000     0.737790000000     0.746900000000     0.43036    
C193     C      0.213880000000     0.862550000000     0.654070000000    -0.0106845  
C194     C      0.282750000000     0.897020000000     0.650370000000    -0.010525   
C195     C      0.215180000000     0.835330000000     0.685400000000    -0.0106669  
C196     C      0.283960000000     0.869580000000     0.681330000000    -0.0104603  
C197     C      0.214640000000     0.585230000000     0.682300000000    -0.0107656  
C198     C      0.283510000000     0.619670000000     0.677870000000    -0.0106604  
C199     C      0.213220000000     0.612350000000     0.651010000000    -0.0103965  
C200     C      0.281970000000     0.646760000000     0.646650000000    -0.0102262  
C201     C      0.459200000000     0.867720000000     0.645470000000    -0.0104949  
C202     C      0.527910000000     0.902400000000     0.643240000000    -0.0101926  
C203     C      0.960130000000     0.843670000000     0.681470000000    -0.0111678  
C204     C      0.029110000000     0.878360000000     0.679040000000    -0.00805608 
C205     C      0.459880000000     0.621630000000     0.662380000000    -0.0106863  
C206     C      0.028990000000     0.656050000000     0.662670000000    -0.00816129 
C207     C      0.459810000000     0.589460000000     0.685110000000    -0.0104851  
C208     C      0.028640000000     0.623520000000     0.684870000000    -0.00780873 
C209     C      0.219150000000     0.719430000000     0.854030000000    -0.010237   
C210     C      0.279010000000     0.779400000000     0.849110000000    -0.00987643 
C211     C      0.230120000000     0.705230000000     0.815160000000    -0.00946972 
C212     C      0.290900000000     0.763780000000     0.812450000000    -0.0100039  
C213     C      0.280430000000     0.520110000000     0.814020000000    -0.0104412  
C214     C      0.220160000000     0.958630000000     0.815540000000    -0.00958967 
C215     C      0.293590000000     0.507920000000     0.852770000000    -0.00948183 
C216     C      0.234090000000     0.946000000000     0.853330000000    -0.0100383  
C217     C      0.350920000000     0.718490000000     0.990950000000    -0.00911247 
C218     C      0.385550000000     0.787380000000     0.987630000000    -0.00907828 
C219     C      0.379150000000     0.719410000000     0.022270000000    -0.0116227  
C220     C      0.413990000000     0.788410000000     0.018640000000    -0.0115228  
C221     C      0.135900000000     0.788600000000     0.023350000000    -0.0115034  
C222     C      0.101720000000     0.719700000000     0.026700000000    -0.0118404  
C223     C      0.163320000000     0.787700000000     0.992260000000    -0.00915103 
C224     C      0.129170000000     0.718680000000     0.995810000000    -0.00751604 
C225     C      0.037720000000     0.773890000000     0.865170000000    -0.010258   
C226     C      0.478830000000     0.713220000000     0.867630000000    -0.0102232  
C227     C      0.024390000000     0.784400000000     0.825260000000    -0.00699127 
C228     C      0.464630000000     0.724520000000     0.828840000000    -0.0101341  
C229     C      0.380470000000     0.021430000000     0.014670000000    -0.0113972  
C230     C      0.346500000000     0.952840000000     0.019380000000    -0.0115424  
C231     C      0.407210000000     0.520960000000     0.981160000000    -0.00993988 
C232     C      0.373110000000     0.452060000000     0.985960000000    -0.00976216 
C233     C      0.159070000000     0.519610000000     0.972160000000    -0.00896859 
C234     C      0.123460000000     0.950130000000     0.979450000000    -0.00907312 
C235     C      0.131020000000     0.522070000000     0.000960000000    -0.0142243  
C236     C      0.094480000000     0.952140000000     0.006910000000    -0.0127467  
C237     C      0.024560000000     0.521130000000     0.806720000000    -0.00688456 
C238     C      0.462980000000     0.961190000000     0.805040000000    -0.00993256 
C239     C      0.037490000000     0.506380000000     0.842980000000    -0.00891116 
C240     C      0.476200000000     0.946860000000     0.842010000000    -0.00988512 
C241     C      0.267290000000     0.739990000000     0.516270000000    -0.00957808 
C242     C      0.206640000000     0.738300000000     0.521560000000    -0.0103066  
C243     C      0.278240000000     0.766710000000     0.479300000000    -0.00886222 
C244     C      0.217830000000     0.765140000000     0.483910000000    -0.0101453  
C245     C      0.235890000000     0.718280000000     0.187000000000    -0.0099124  
C246     C      0.236320000000     0.778270000000     0.182830000000    -0.0102144  
C247     C      0.262960000000     0.730150000000     0.149910000000    -0.0100762  
C248     C      0.265010000000     0.790970000000     0.147140000000    -0.0104398  
C249     C      0.276740000000     0.998520000000     0.517090000000    -0.0106514  
C250     C      0.215430000000     0.995590000000     0.519820000000    -0.0105657  
C251     C      0.288890000000     0.526240000000     0.482740000000    -0.00868583 
C252     C      0.228030000000     0.523690000000     0.484510000000    -0.0105173  
C253     C      0.254410000000     0.035290000000     0.184590000000    -0.0110325  
C254     C      0.257530000000     0.476900000000     0.190700000000    -0.00981997 
C255     C      0.235240000000     0.022010000000     0.141350000000    -0.0100005  
C256     C      0.233610000000     0.462070000000     0.151030000000    -0.0099639  
C257     C      0.523210000000     0.746960000000     0.530220000000    -0.00981768 
C258     C      0.964160000000     0.748690000000     0.529760000000    -0.00988076 
C259     C      0.538150000000     0.775350000000     0.494460000000    -0.00940489 
C260     C      0.980150000000     0.778660000000     0.495550000000    -0.0135248  
C261     C      0.405900000000     0.635490000000     0.364100000000    -0.0107782  
C262     C      0.370940000000     0.669180000000     0.358550000000    -0.0106186  
C263     C      0.381550000000     0.608560000000     0.329600000000    -0.0107072  
C264     C      0.346490000000     0.642300000000     0.324120000000    -0.0106515  
C265     C      0.127650000000     0.856150000000     0.325860000000    -0.0106193  
C266     C      0.093840000000     0.891220000000     0.324530000000    -0.0106111  
C267     C      0.157580000000     0.886020000000     0.353660000000    -0.0108563  
C268     C      0.123850000000     0.921270000000     0.352000000000    -0.0108035  
C269     C      0.987970000000     0.720080000000     0.201950000000    -0.0143443  
C270     C      0.485340000000     0.778440000000     0.196770000000    -0.0101015  
C271     C      0.014550000000     0.732440000000     0.164410000000    -0.00480831 
C272     C      0.513850000000     0.791990000000     0.161050000000    -0.00990875 
C273     C      0.031600000000     0.522130000000     0.469190000000    -0.00704995 
C274     C      0.472280000000     0.522630000000     0.471460000000    -0.00975523 
C275     C      0.020590000000     0.999450000000     0.508140000000    -0.00905761 
C276     C      0.459980000000     0.998270000000     0.509450000000    -0.0110838  
C277     C      0.333190000000     0.883030000000     0.344670000000    -0.0103772  
C278     C      0.367620000000     0.848570000000     0.346690000000    -0.0102602  
C279     C      0.363910000000     0.913360000000     0.318500000000    -0.0101638  
C280     C      0.398810000000     0.879120000000     0.321180000000    -0.0103063  
C281     C      0.120190000000     0.599820000000     0.308320000000    -0.0104262  
C282     C      0.085870000000     0.634320000000     0.306260000000    -0.0101693  
C283     C      0.146180000000     0.626440000000     0.341900000000    -0.0104047  
C284     C      0.111720000000     0.661010000000     0.339800000000    -0.0102415  
C285     C      0.478650000000     0.959500000000     0.180130000000    -0.00932394 
C286     C      0.979590000000     0.519750000000     0.171120000000    -0.0148417  
C287     C      0.503070000000     0.968130000000     0.140970000000    -0.00992453 
C288     C      0.007170000000     0.530360000000     0.134640000000    -0.00504715 
C289     C      0.486980000000     0.999030000000     0.242030000000     0.430282   
C290     C      0.496020000000     0.513150000000     0.403430000000     0.428634   
C291     C      0.552230000000     0.067120000000     0.314430000000     0.431038   
C292     C      0.931320000000     0.446020000000     0.327380000000     0.430505   
C293     C      0.938800000000     0.203490000000     0.355570000000     0.427543   
C294     C      0.560290000000     0.323620000000     0.336940000000     0.427026   
C295     C      0.005330000000     0.271350000000     0.427360000000     0.435196   
C296     C      0.992960000000     0.255970000000     0.266320000000     0.4247     
C297     C      0.812780000000     0.074680000000     0.330310000000     0.427428   
C298     C      0.691900000000     0.453030000000     0.341170000000     0.42684    
C299     C      0.750290000000     0.007560000000     0.254910000000     0.427746   
C300     C      0.755080000000     0.020570000000     0.416560000000     0.429449   
C301     C      0.679500000000     0.194350000000     0.336680000000     0.430532   
C302     C      0.800740000000     0.315380000000     0.334450000000     0.4305     
C303     C      0.739340000000     0.252260000000     0.252990000000     0.428027   
C304     C      0.741880000000     0.258040000000     0.415140000000     0.430175   
C305     C      0.561420000000     0.986380000000     0.994980000000     0.426827   
C306     C      0.939810000000     0.985920000000     0.985580000000     0.426986   
C307     C      0.002280000000     0.980800000000     0.909180000000     0.43586    
C308     C      0.000250000000     0.992040000000     0.070350000000     0.436479   
C309     C      0.568010000000     0.253350000000     0.017090000000     0.43081    
C310     C      0.946750000000     0.253050000000     0.014630000000     0.429966   
C311     C      0.009320000000     0.257520000000     0.095440000000     0.436092   
C312     C      0.006190000000     0.248330000000     0.933550000000     0.433473   
C313     C      0.812250000000     0.986490000000     0.010900000000     0.426488   
C314     C      0.691100000000     0.985100000000     0.988870000000     0.427016   
C315     C      0.757710000000     0.980910000000     0.920350000000     0.428614   
C316     C      0.744830000000     0.990300000000     0.080660000000     0.427213   
C317     C      0.696930000000     0.253540000000     0.000670000000     0.428678   
C318     C      0.817860000000     0.253190000000     0.997240000000     0.430301   
C319     C      0.754120000000     0.250430000000     0.919250000000     0.4295     
C320     C      0.760280000000     0.256810000000     0.081380000000     0.427987   
C321     C      0.994070000000     0.991070000000     0.737770000000     0.423524   
C322     C      0.993060000000     0.501450000000     0.577530000000     0.422289   
C323     C      0.993450000000     0.056700000000     0.666790000000     0.422426   
C324     C      0.993870000000     0.436280000000     0.650980000000     0.423303   
C325     C      0.494490000000     0.188330000000     0.675240000000     0.427444   
C326     C      0.495050000000     0.310070000000     0.679920000000     0.428396   
C327     C      0.495450000000     0.249180000000     0.759750000000     0.428016   
C328     C      0.494550000000     0.249860000000     0.597450000000     0.428916   
C329     C      0.749150000000     0.051890000000     0.673910000000     0.428676   
C330     C      0.748230000000     0.430260000000     0.660600000000     0.428017   
C331     C      0.750480000000     0.987600000000     0.747790000000     0.428335   
C332     C      0.747540000000     0.995630000000     0.586030000000     0.428444   
C333     C      0.748280000000     0.180140000000     0.658920000000     0.429237   
C334     C      0.748910000000     0.301360000000     0.675210000000     0.428502   
C335     C      0.742610000000     0.242770000000     0.586650000000     0.430157   
C336     C      0.754730000000     0.237670000000     0.747460000000     0.430076   
C337     C      0.713570000000     0.362240000000     0.655140000000    -0.0106356  
C338     C      0.782440000000     0.396790000000     0.651200000000    -0.0104961  
C339     C      0.715000000000     0.334970000000     0.686260000000    -0.0106811  
C340     C      0.783760000000     0.369310000000     0.682000000000    -0.0105181  
C341     C      0.715060000000     0.085390000000     0.683990000000    -0.0106658  
C342     C      0.783890000000     0.119880000000     0.679700000000    -0.010596   
C343     C      0.713590000000     0.112210000000     0.652250000000    -0.0103524  
C344     C      0.782370000000     0.146720000000     0.648060000000    -0.0103535  
C345     C      0.959700000000     0.368150000000     0.646850000000    -0.011015   
C346     C      0.028440000000     0.402840000000     0.644870000000    -0.00781023 
C347     C      0.460540000000     0.343690000000     0.682390000000    -0.0105834  
C348     C      0.529500000000     0.378290000000     0.680130000000    -0.010541   
C349     C      0.959700000000     0.121420000000     0.661770000000    -0.011148   
C350     C      0.528820000000     0.155710000000     0.662040000000    -0.0107894  
C351     C      0.959560000000     0.089130000000     0.684300000000    -0.0109418  
C352     C      0.528390000000     0.123070000000     0.684070000000    -0.0104522  
C353     C      0.719140000000     0.219250000000     0.854500000000    -0.0101831  
C354     C      0.778920000000     0.279300000000     0.849630000000    -0.0099024  
C355     C      0.730210000000     0.205090000000     0.815700000000    -0.00940598 
C356     C      0.790920000000     0.263730000000     0.813020000000    -0.0100471  
C357     C      0.780230000000     0.018720000000     0.814620000000    -0.010304   
C358     C      0.720550000000     0.459850000000     0.815550000000    -0.00993092 
C359     C      0.792760000000     0.006520000000     0.853840000000    -0.00862944 
C360     C      0.735180000000     0.447120000000     0.852560000000    -0.0104333  
C361     C      0.850780000000     0.218260000000     0.991150000000    -0.00912653 
C362     C      0.885420000000     0.287150000000     0.987840000000    -0.00915354 
C363     C      0.879070000000     0.219160000000     0.022340000000    -0.0116188  
C364     C      0.913930000000     0.288160000000     0.018730000000    -0.0113939  
C365     C      0.635760000000     0.288350000000     0.023670000000    -0.0114919  
C366     C      0.601590000000     0.219450000000     0.026970000000    -0.011702   
C367     C      0.663250000000     0.287490000000     0.992670000000    -0.00915014 
C368     C      0.629100000000     0.218460000000     0.996150000000    -0.00750993 
C369     C      0.537740000000     0.273480000000     0.865190000000    -0.00990365 
C370     C      0.978840000000     0.212850000000     0.867620000000    -0.0133397  
C371     C      0.524500000000     0.283980000000     0.825190000000    -0.0103023  
C372     C      0.964710000000     0.224120000000     0.828740000000    -0.00987256 
C373     C      0.881580000000     0.522370000000     0.014880000000    -0.0119879  
C374     C      0.847600000000     0.453700000000     0.019580000000    -0.0117897  
C375     C      0.905770000000     0.020020000000     0.980520000000    -0.00958573 
C376     C      0.871600000000     0.951110000000     0.985300000000    -0.00967184 
C377     C      0.657980000000     0.018730000000     0.972890000000    -0.00857859 
C378     C      0.624490000000     0.451030000000     0.978930000000    -0.00927031 
C379     C      0.629300000000     0.021010000000     0.000660000000    -0.0139447  
C380     C      0.596200000000     0.453220000000     0.007530000000    -0.0128411  
C381     C      0.524130000000     0.020150000000     0.805240000000    -0.0100885  
C382     C      0.963430000000     0.462140000000     0.806790000000    -0.0101009  
C383     C      0.536540000000     0.005740000000     0.842350000000    -0.00796622 
C384     C      0.977100000000     0.447500000000     0.843020000000    -0.01347    
C385     C      0.767320000000     0.239710000000     0.516810000000    -0.00970764 
C386     C      0.706690000000     0.238070000000     0.522120000000    -0.0102283  
C387     C      0.778250000000     0.266390000000     0.479790000000    -0.00883603 
C388     C      0.717870000000     0.264890000000     0.484460000000    -0.0101866  
C389     C      0.735660000000     0.218030000000     0.187490000000    -0.0098369  
C390     C      0.736320000000     0.278140000000     0.183350000000    -0.0103596  
C391     C      0.762740000000     0.229830000000     0.150420000000    -0.0101188  
C392     C      0.765010000000     0.290760000000     0.147660000000    -0.010422   
C393     C      0.775800000000     0.496310000000     0.516460000000    -0.0098307  
C394     C      0.714550000000     0.493580000000     0.518860000000    -0.0108274  
C395     C      0.789450000000     0.028010000000     0.482880000000    -0.00801436 
C396     C      0.728490000000     0.025280000000     0.485030000000    -0.0101987  
C397     C      0.755800000000     0.535870000000     0.183930000000    -0.0110825  
C398     C      0.756140000000     0.976350000000     0.191760000000    -0.00990415 
C399     C      0.736100000000     0.522520000000     0.140960000000    -0.0104306  
C400     C      0.732830000000     0.961640000000     0.151660000000    -0.00980507 
C401     C      0.023250000000     0.247000000000     0.530100000000    -0.00659113 
C402     C      0.464320000000     0.248980000000     0.529720000000    -0.0102093  
C403     C      0.038200000000     0.275300000000     0.494250000000    -0.00965318 
C404     C      0.480350000000     0.278870000000     0.495430000000    -0.0102745  
C405     C      0.905310000000     0.135600000000     0.363880000000    -0.0106832  
C406     C      0.870610000000     0.169550000000     0.358430000000    -0.0106366  
C407     C      0.880980000000     0.108860000000     0.329240000000    -0.0107185  
C408     C      0.846050000000     0.142730000000     0.324000000000    -0.0106569  
C409     C      0.627640000000     0.355520000000     0.325060000000    -0.0107201  
C410     C      0.594110000000     0.390860000000     0.323740000000    -0.0105711  
C411     C      0.657910000000     0.385550000000     0.352390000000    -0.0108859  
C412     C      0.624370000000     0.421000000000     0.350860000000    -0.0107224  
C413     C      0.487560000000     0.219840000000     0.201840000000    -0.00952419 
C414     C      0.985120000000     0.278300000000     0.196630000000    -0.0148656  
C415     C      0.514250000000     0.232190000000     0.164420000000    -0.00960686 
C416     C      0.013700000000     0.291810000000     0.160990000000    -0.00516726 
C417     C      0.531910000000     0.024110000000     0.468900000000    -0.00872035 
C418     C      0.972460000000     0.024430000000     0.471190000000    -0.0100454  
C419     C      0.521040000000     0.499050000000     0.509740000000    -0.0105438  
C420     C      0.960340000000     0.497720000000     0.510800000000    -0.0105678  
C421     C      0.833550000000     0.382660000000     0.344990000000    -0.0103066  
C422     C      0.867830000000     0.348030000000     0.346490000000    -0.010318   
C423     C      0.864020000000     0.412780000000     0.318360000000    -0.010201   
C424     C      0.898810000000     0.378440000000     0.320590000000    -0.0100801  
C425     C      0.620080000000     0.100170000000     0.307870000000    -0.0103302  
C426     C      0.585960000000     0.134850000000     0.305700000000    -0.0101438  
C427     C      0.645720000000     0.126380000000     0.341970000000    -0.010344   
C428     C      0.611500000000     0.161180000000     0.339700000000    -0.0101797  
C429     C      0.978930000000     0.459980000000     0.179760000000    -0.0157933  
C430     C      0.478800000000     0.018960000000     0.171030000000    -0.00948108 
C431     C      0.004850000000     0.469450000000     0.141960000000     0.000735323
C432     C      0.505300000000     0.028990000000     0.133570000000    -0.00940798 
C433     C      0.487070000000     0.499090000000     0.242070000000     0.430711   
C434     C      0.496090000000     0.014730000000     0.403160000000     0.429436   
C435     C      0.552330000000     0.566610000000     0.315070000000     0.430817   
C436     C      0.931180000000     0.946690000000     0.327760000000     0.430394   
C437     C      0.939120000000     0.703370000000     0.355630000000     0.428134   
C438     C      0.560240000000     0.823900000000     0.337270000000     0.427013   
C439     C      0.005320000000     0.771350000000     0.427520000000     0.435388   
C440     C      0.993230000000     0.756120000000     0.266440000000     0.424469   
C441     C      0.813340000000     0.574270000000     0.330350000000     0.427644   
C442     C      0.691420000000     0.953490000000     0.342390000000     0.426729   
C443     C      0.751450000000     0.507720000000     0.254210000000     0.4264     
C444     C      0.755100000000     0.519550000000     0.416090000000     0.428525   
C445     C      0.679700000000     0.694400000000     0.336220000000     0.430311   
C446     C      0.800630000000     0.815770000000     0.334000000000     0.430179   
C447     C      0.739420000000     0.752460000000     0.252480000000     0.428071   
C448     C      0.741890000000     0.758290000000     0.414630000000     0.429976   
C449     C      0.563050000000     0.487460000000     0.995820000000     0.426726   
C450     C      0.941330000000     0.486940000000     0.986570000000     0.426608   
C451     C      0.003600000000     0.481490000000     0.910080000000     0.435588   
C452     C      0.002220000000     0.493480000000     0.071250000000     0.436454   
C453     C      0.568130000000     0.753620000000     0.016990000000     0.430719   
C454     C      0.946850000000     0.753320000000     0.014690000000     0.43006    
C455     C      0.009470000000     0.757750000000     0.095470000000     0.436011   
C456     C      0.006250000000     0.748660000000     0.933570000000     0.433825   
C457     C      0.813390000000     0.487340000000     0.010520000000     0.426112   
C458     C      0.692230000000     0.485930000000     0.987930000000     0.427139   
C459     C      0.759020000000     0.481930000000     0.919600000000     0.428272   
C460     C      0.745610000000     0.490840000000     0.080020000000     0.426831   
C461     C      0.697020000000     0.753740000000     0.000170000000     0.42867    
C462     C      0.817960000000     0.753400000000     0.996810000000     0.430232   
C463     C      0.754210000000     0.750590000000     0.918740000000     0.429388   
C464     C      0.760370000000     0.757050000000     0.080870000000     0.427767   
C465     C      0.994360000000     0.491780000000     0.739280000000     0.423677   
C466     C      0.992490000000     0.001220000000     0.576160000000     0.423343   
C467     C      0.993800000000     0.557100000000     0.667850000000     0.422233   
C468     C      0.993370000000     0.935860000000     0.649220000000     0.423697   
C469     C      0.494530000000     0.688570000000     0.675640000000     0.427587   
C470     C      0.494770000000     0.810150000000     0.679610000000     0.428385   
C471     C      0.495330000000     0.749560000000     0.759830000000     0.428045   
C472     C      0.494410000000     0.749770000000     0.597530000000     0.429396   
C473     C      0.748690000000     0.551690000000     0.672320000000     0.428877   
C474     C      0.748610000000     0.930540000000     0.660050000000     0.428219   
C475     C      0.750360000000     0.488380000000     0.747380000000     0.427862   
C476     C      0.746710000000     0.494240000000     0.585340000000     0.42811    
C477     C      0.748040000000     0.680250000000     0.658180000000     0.429005   
C478     C      0.749000000000     0.801610000000     0.674680000000     0.428398   
C479     C      0.742550000000     0.743000000000     0.586100000000     0.430145   
C480     C      0.754660000000     0.737790000000     0.746900000000     0.430376   
C481     C      0.713890000000     0.862550000000     0.654070000000    -0.010583   
C482     C      0.782750000000     0.897020000000     0.650370000000    -0.0105131  
C483     C      0.715180000000     0.835330000000     0.685400000000    -0.0106909  
C484     C      0.783960000000     0.869580000000     0.681330000000    -0.0104519  
C485     C      0.714640000000     0.585230000000     0.682300000000    -0.0107537  
C486     C      0.783510000000     0.619670000000     0.677870000000    -0.0106491  
C487     C      0.713220000000     0.612350000000     0.651010000000    -0.0103858  
C488     C      0.781970000000     0.646760000000     0.646650000000    -0.0102168  
C489     C      0.959200000000     0.867720000000     0.645470000000    -0.0108242  
C490     C      0.027910000000     0.902400000000     0.643240000000    -0.00771076 
C491     C      0.460130000000     0.843670000000     0.681470000000    -0.0107584  
C492     C      0.529110000000     0.878360000000     0.679040000000    -0.0106632  
C493     C      0.959880000000     0.621630000000     0.662380000000    -0.0110958  
C494     C      0.528990000000     0.656050000000     0.662670000000    -0.0107482  
C495     C      0.959810000000     0.589460000000     0.685110000000    -0.0108985  
C496     C      0.528640000000     0.623520000000     0.684870000000    -0.0103737  
C497     C      0.719150000000     0.719430000000     0.854030000000    -0.0102169  
C498     C      0.779010000000     0.779400000000     0.849110000000    -0.0098721  
C499     C      0.730120000000     0.705230000000     0.815160000000    -0.0094686  
C500     C      0.790900000000     0.763780000000     0.812450000000    -0.00998924 
C501     C      0.780430000000     0.520110000000     0.814020000000    -0.0104405  
C502     C      0.720160000000     0.958630000000     0.815540000000    -0.00957242 
C503     C      0.793590000000     0.507920000000     0.852770000000    -0.00946065 
C504     C      0.734090000000     0.946000000000     0.853330000000    -0.0100341  
C505     C      0.850920000000     0.718490000000     0.990950000000    -0.00910754 
C506     C      0.885550000000     0.787380000000     0.987630000000    -0.00911268 
C507     C      0.879150000000     0.719410000000     0.022270000000    -0.0116551  
C508     C      0.913990000000     0.788410000000     0.018640000000    -0.0114585  
C509     C      0.635900000000     0.788600000000     0.023350000000    -0.0115274  
C510     C      0.601720000000     0.719700000000     0.026700000000    -0.0117637  
C511     C      0.663320000000     0.787700000000     0.992260000000    -0.00912606 
C512     C      0.629170000000     0.718680000000     0.995810000000    -0.00754195 
C513     C      0.537720000000     0.773890000000     0.865170000000    -0.0100446  
C514     C      0.978840000000     0.713220000000     0.867630000000    -0.0133848  
C515     C      0.524390000000     0.784400000000     0.825260000000    -0.0101639  
C516     C      0.964630000000     0.724520000000     0.828840000000    -0.00989083 
C517     C      0.880470000000     0.021430000000     0.014670000000    -0.0114011  
C518     C      0.846510000000     0.952840000000     0.019380000000    -0.0115415  
C519     C      0.907210000000     0.520960000000     0.981160000000    -0.00992285 
C520     C      0.873110000000     0.452060000000     0.985960000000    -0.00981394 
C521     C      0.659070000000     0.519610000000     0.972160000000    -0.00896561 
C522     C      0.623460000000     0.950130000000     0.979450000000    -0.00910154 
C523     C      0.631020000000     0.522070000000     0.000960000000    -0.0142216  
C524     C      0.594480000000     0.952140000000     0.006910000000    -0.0126524  
C525     C      0.524560000000     0.521130000000     0.806720000000    -0.0100981  
C526     C      0.962980000000     0.961190000000     0.805040000000    -0.00975174 
C527     C      0.537490000000     0.506380000000     0.842980000000    -0.00864265 
C528     C      0.976200000000     0.946860000000     0.842010000000    -0.0130462  
C529     C      0.767290000000     0.739990000000     0.516270000000    -0.00957245 
C530     C      0.706640000000     0.738300000000     0.521560000000    -0.010285   
C531     C      0.778240000000     0.766710000000     0.479300000000    -0.00884861 
C532     C      0.717830000000     0.765140000000     0.483910000000    -0.0101462  
C533     C      0.735890000000     0.718280000000     0.187000000000    -0.00992684 
C534     C      0.736320000000     0.778270000000     0.182830000000    -0.0102047  
C535     C      0.762960000000     0.730150000000     0.149910000000    -0.0100616  
C536     C      0.765010000000     0.790970000000     0.147140000000    -0.0104314  
C537     C      0.776740000000     0.998520000000     0.517090000000    -0.0105452  
C538     C      0.715430000000     0.995590000000     0.519820000000    -0.0105443  
C539     C      0.788890000000     0.526240000000     0.482740000000    -0.00866751 
C540     C      0.728030000000     0.523690000000     0.484510000000    -0.010517   
C541     C      0.754410000000     0.035290000000     0.184590000000    -0.0110293  
C542     C      0.757530000000     0.476900000000     0.190700000000    -0.00981705 
C543     C      0.735240000000     0.022010000000     0.141350000000    -0.00998998 
C544     C      0.733610000000     0.462070000000     0.151030000000    -0.00995215 
C545     C      0.023210000000     0.746960000000     0.530220000000    -0.00663531 
C546     C      0.464160000000     0.748690000000     0.529760000000    -0.010103   
C547     C      0.038150000000     0.775350000000     0.494460000000    -0.00963808 
C548     C      0.480150000000     0.778660000000     0.495550000000    -0.0103574  
C549     C      0.905900000000     0.635490000000     0.364100000000    -0.0107116  
C550     C      0.870940000000     0.669180000000     0.358550000000    -0.0106408  
C551     C      0.881550000000     0.608560000000     0.329600000000    -0.0107284  
C552     C      0.846490000000     0.642300000000     0.324120000000    -0.0106356  
C553     C      0.627650000000     0.856150000000     0.325860000000    -0.010593   
C554     C      0.593840000000     0.891220000000     0.324530000000    -0.0106447  
C555     C      0.657580000000     0.886020000000     0.353660000000    -0.0108598  
C556     C      0.623860000000     0.921270000000     0.352000000000    -0.0106974  
C557     C      0.487970000000     0.720080000000     0.201950000000    -0.00946508 
C558     C      0.985340000000     0.778440000000     0.196770000000    -0.0148301  
C559     C      0.514550000000     0.732440000000     0.164410000000    -0.00973746 
C560     C      0.013850000000     0.791990000000     0.161050000000    -0.00512649 
C561     C      0.531590000000     0.522130000000     0.469190000000    -0.00949122 
C562     C      0.972280000000     0.522630000000     0.471460000000    -0.010063   
C563     C      0.520590000000     0.999450000000     0.508140000000    -0.0115533  
C564     C      0.959980000000     0.998270000000     0.509450000000    -0.0114865  
C565     C      0.833190000000     0.883030000000     0.344670000000    -0.0103266  
C566     C      0.867620000000     0.848570000000     0.346690000000    -0.0103499  
C567     C      0.863910000000     0.913360000000     0.318500000000    -0.0101946  
C568     C      0.898810000000     0.879120000000     0.321180000000    -0.0102021  
C569     C      0.620190000000     0.599820000000     0.308320000000    -0.0104641  
C570     C      0.585870000000     0.634320000000     0.306260000000    -0.0101101  
C571     C      0.646180000000     0.626440000000     0.341900000000    -0.0103894  
C572     C      0.611720000000     0.661010000000     0.339800000000    -0.0102752  
C573     C      0.978650000000     0.959500000000     0.180130000000    -0.0158674  
C574     C      0.479590000000     0.519750000000     0.171120000000    -0.00997015 
C575     C      0.003070000000     0.968130000000     0.140970000000     0.000594623
C576     C      0.507180000000     0.530360000000     0.134640000000    -0.00992768 
H1       H      0.283230000000     0.387670000000     0.618200000000     0.039235   
H2       H      0.210030000000     0.350810000000     0.622460000000     0.0393173  
H3       H      0.189960000000     0.307690000000     0.681930000000     0.0426959  
H4       H      0.307410000000     0.424080000000     0.655830000000     0.0423777  
H5       H      0.308260000000     0.366810000000     0.674650000000     0.0426607  
H6       H      0.287240000000     0.380590000000     0.714760000000     0.038953   
H7       H      0.189100000000     0.364760000000     0.662620000000     0.042402   
H8       H      0.214580000000     0.344420000000     0.719200000000     0.0390719  
H9       H      0.287380000000     0.131690000000     0.712170000000     0.0390116  
H10      H      0.214580000000     0.095250000000     0.716680000000     0.0391634  
H11      H      0.189010000000     0.114680000000     0.659160000000     0.0424505  
H12      H      0.308420000000     0.117350000000     0.672650000000     0.0428227  
H13      H      0.307390000000     0.174080000000     0.651940000000     0.0424833  
H14      H      0.282770000000     0.136850000000     0.615350000000     0.0391012  
H15      H      0.190050000000     0.058030000000     0.680020000000     0.0429052  
H16      H      0.210270000000     0.100430000000     0.619780000000     0.0388016  
H17      H      0.529410000000     0.390790000000     0.613730000000     0.0387916  
H18      H      0.457550000000     0.354400000000     0.615890000000     0.0385629  
H19      H      0.435690000000     0.316050000000     0.679770000000     0.0424603  
H20      H      0.053320000000     0.430480000000     0.647150000000     0.042667   
H21      H      0.054220000000     0.375510000000     0.675760000000     0.0423767  
H22      H      0.032330000000     0.392210000000     0.711140000000     0.0401766  
H23      H      0.434790000000     0.370680000000     0.650600000000     0.0424441  
H24      H      0.959240000000     0.355690000000     0.713430000000     0.0387245  
H25      H      0.031900000000     0.153320000000     0.627230000000     0.0399182  
H26      H      0.456880000000     0.115840000000     0.626980000000     0.0395207  
H27      H      0.434710000000     0.063330000000     0.674210000000     0.0421645  
H28      H      0.053340000000     0.181360000000     0.673110000000     0.0426289  
H29      H      0.052940000000     0.121710000000     0.673720000000     0.0423661  
H30      H      0.030800000000     0.128230000000     0.718940000000     0.039123   
H31      H      0.435260000000     0.122860000000     0.672450000000     0.0426146  
H32      H      0.457470000000     0.092300000000     0.719140000000     0.0391219  
H33      H      0.266300000000     0.294850000000     0.836130000000     0.0412394  
H34      H      0.201620000000     0.230460000000     0.843280000000     0.0397374  
H35      H      0.205360000000     0.186620000000     0.796820000000     0.0419703  
H36      H      0.303610000000     0.298690000000     0.868230000000     0.0417924  
H37      H      0.309870000000     0.286710000000     0.791960000000     0.0422557  
H38      H      0.306090000000     0.250660000000     0.826440000000     0.0403196  
H39      H      0.202110000000     0.195890000000     0.876130000000     0.0424852  
H40      H      0.242190000000     0.188350000000     0.827340000000     0.0386756  
H41      H      0.204040000000     0.471550000000     0.828710000000     0.0413361  
H42      H      0.268700000000     0.036070000000     0.825470000000     0.0400324  
H43      H      0.310730000000     0.030880000000     0.873730000000     0.0418675  
H44      H      0.202220000000     0.435630000000     0.795630000000     0.0410474  
H45      H      0.211670000000     0.427550000000     0.872570000000     0.0423436  
H46      H      0.248790000000     0.432410000000     0.839320000000     0.0401536  
H47      H      0.304510000000     0.036300000000     0.794450000000     0.0429567  
H48      H      0.309600000000     0.994470000000     0.842840000000     0.0382732  
H49      H      0.395370000000     0.287910000000     0.954870000000     0.0389622  
H50      H      0.358910000000     0.215110000000     0.958440000000     0.0388758  
H51      H      0.381230000000     0.194110000000     0.017510000000     0.0426724  
H52      H      0.383290000000     0.312220000000     0.992530000000     0.0423423  
H53      H      0.441020000000     0.312550000000     0.011370000000     0.0421766  
H54      H      0.406170000000     0.291750000000     0.051460000000     0.0388811  
H55      H      0.323680000000     0.193730000000     0.998130000000     0.0429015  
H56      H      0.368940000000     0.218280000000     0.055240000000     0.0394839  
H57      H      0.110780000000     0.218760000000     0.059970000000     0.0395145  
H58      H      0.146910000000     0.291460000000     0.056450000000     0.0388929  
H59      H      0.190420000000     0.312530000000     0.997620000000     0.0421448  
H60      H      0.074430000000     0.194350000000     0.022270000000     0.0435961  
H61      H      0.131780000000     0.194040000000     0.003500000000     0.0418555  
H62      H      0.117850000000     0.214970000000     0.963380000000     0.0388737  
H63      H      0.133180000000     0.312880000000     0.016640000000     0.0423655  
H64      H      0.154120000000     0.288400000000     0.959710000000     0.0392863  
H65      H      0.991640000000     0.196710000000     0.856510000000     0.04001    
H66      H      0.054890000000     0.261520000000     0.855080000000     0.0400062  
H67      H      0.048460000000     0.301160000000     0.804410000000     0.0426547  
H68      H      0.455130000000     0.194890000000     0.888390000000     0.0416192  
H69      H      0.446250000000     0.199110000000     0.810010000000     0.0412719  
H70      H      0.448440000000     0.236730000000     0.839990000000     0.0409309  
H71      H      0.055670000000     0.298700000000     0.883820000000     0.0429203  
H72      H      0.512610000000     0.301260000000     0.835020000000     0.0396676  
H73      H      0.359000000000     0.453680000000     0.051500000000     0.0392657  
H74      H      0.394690000000     0.525810000000     0.046560000000     0.0387352  
H75      H      0.433280000000     0.045020000000     0.983310000000     0.0428705  
H76      H      0.320190000000     0.428530000000     0.017170000000     0.0421609  
H77      H      0.376050000000     0.427640000000     0.992190000000     0.0425225  
H78      H      0.357990000000     0.947250000000     0.953870000000     0.0390989  
H79      H      0.377550000000     0.045890000000     0.008590000000     0.0425677  
H80      H      0.394400000000     0.020580000000     0.948760000000     0.0394575  
H81      H      0.114190000000     0.446710000000     0.945640000000     0.0388328  
H82      H      0.150220000000     0.018290000000     0.938980000000     0.0387438  
H83      H      0.127100000000     0.045140000000     0.990390000000     0.0439359  
H84      H      0.126670000000     0.426700000000     0.988300000000     0.0424077  
H85      H      0.069040000000     0.428200000000     0.002450000000     0.0428085  
H86      H      0.104200000000     0.453050000000     0.041210000000     0.0395589  
H87      H      0.185000000000     0.043930000000     0.977960000000     0.0426647  
H88      H      0.139190000000     0.025750000000     0.034140000000     0.0397179  
H89      H      0.446560000000     0.973180000000     0.817670000000     0.0408292  
H90      H      0.013290000000     0.037440000000     0.818310000000     0.0412462  
H91      H      0.056090000000     0.029120000000     0.862550000000     0.0418524  
H92      H      0.444520000000     0.438760000000     0.786150000000     0.0412502  
H93      H      0.453430000000     0.428820000000     0.863420000000     0.0414981  
H94      H      0.488940000000     0.431460000000     0.828870000000     0.0397981  
H95      H      0.048320000000     0.038180000000     0.785170000000     0.0425634  
H96      H      0.052300000000     0.493190000000     0.828890000000     0.0396893  
H97      H      0.190080000000     0.209580000000     0.509750000000     0.0407558  
H98      H      0.255140000000     0.211450000000     0.503620000000     0.0405277  
H99      H      0.296860000000     0.262400000000     0.458120000000     0.0419773  
H100     H      0.189250000000     0.243390000000     0.544280000000     0.0412563  
H101     H      0.192950000000     0.258830000000     0.465890000000     0.0411246  
H102     H      0.230210000000     0.293310000000     0.497200000000     0.0399752  
H103     H      0.292310000000     0.245330000000     0.534890000000     0.0428438  
H104     H      0.293980000000     0.294780000000     0.492720000000     0.039293   
H105     H      0.208600000000     0.265890000000     0.168700000000     0.0405656  
H106     H      0.207480000000     0.201500000000     0.174290000000     0.0392111  
H107     H      0.257010000000     0.205310000000     0.131230000000     0.0423347  
H108     H      0.241140000000     0.302460000000     0.202380000000     0.041515   
H109     H      0.261300000000     0.309710000000     0.126220000000     0.0419067  
H110     H      0.292810000000     0.306190000000     0.162140000000     0.0406471  
H111     H      0.240290000000     0.199820000000     0.209150000000     0.0422612  
H112     H      0.290790000000     0.241260000000     0.163900000000     0.0395164  
H113     H      0.199180000000     0.466360000000     0.502960000000     0.0406367  
H114     H      0.264950000000     0.469440000000     0.499960000000     0.0410243  
H115     H      0.309640000000     0.026200000000     0.461670000000     0.0415072  
H116     H      0.195370000000     0.496640000000     0.540560000000     0.041582   
H117     H      0.204370000000     0.519260000000     0.464450000000     0.041021   
H118     H      0.239810000000     0.052550000000     0.500670000000     0.0396417  
H119     H      0.300920000000     0.003700000000     0.536580000000     0.0434539  
H120     H      0.303800000000     0.055280000000     0.498830000000     0.0388818  
H121     H      0.285580000000     0.988600000000     0.182990000000     0.0420577  
H122     H      0.284170000000     0.054400000000     0.179120000000     0.0387898  
H123     H      0.245780000000     0.546310000000     0.118980000000     0.0422344  
H124     H      0.248880000000     0.952920000000     0.213710000000     0.0416713  
H125     H      0.239070000000     0.941560000000     0.136250000000     0.0420979  
H126     H      0.204270000000     0.447590000000     0.160820000000     0.0408416  
H127     H      0.245560000000     0.552480000000     0.200230000000     0.0425904  
H128     H      0.206310000000     0.511720000000     0.146400000000     0.0380433  
H129     H      0.448130000000     0.221820000000     0.513900000000     0.0408466  
H130     H      0.510950000000     0.219240000000     0.515490000000     0.0397831  
H131     H      0.556550000000     0.270120000000     0.473510000000     0.0422864  
H132     H      0.945520000000     0.253620000000     0.550330000000     0.0409595  
H133     H      0.957550000000     0.276700000000     0.475400000000     0.0424911  
H134     H      0.993870000000     0.306160000000     0.511340000000     0.0392843  
H135     H      0.546300000000     0.250560000000     0.550690000000     0.0422564  
H136     H      0.055130000000     0.302890000000     0.508860000000     0.0401851  
H137     H      0.356870000000     0.159320000000     0.389710000000     0.0391053  
H138     H      0.393170000000     0.123540000000     0.395350000000     0.0389105  
H139     H      0.378410000000     0.081600000000     0.335060000000     0.0421871  
H140     H      0.373160000000     0.196830000000     0.352730000000     0.042602   
H141     H      0.318360000000     0.139870000000     0.325930000000     0.0426132  
H142     H      0.357860000000     0.154860000000     0.292450000000     0.0392041  
H143     H      0.432950000000     0.138310000000     0.362330000000     0.0431097  
H144     H      0.394870000000     0.119130000000     0.298050000000     0.0390439  
H145     H      0.100460000000     0.398770000000     0.289720000000     0.0392594  
H146     H      0.136170000000     0.361320000000     0.291140000000     0.0390254  
H147     H      0.184410000000     0.387050000000     0.344620000000     0.042374   
H148     H      0.067620000000     0.389470000000     0.331210000000     0.0429732  
H149     H      0.126840000000     0.447780000000     0.342210000000     0.0431013  
H150     H      0.115740000000     0.415490000000     0.384760000000     0.0392547  
H151     H      0.125230000000     0.328710000000     0.333410000000     0.0425178  
H152     H      0.151640000000     0.377470000000     0.386380000000     0.0396288  
H153     H      0.457290000000     0.264430000000     0.182070000000     0.0402335  
H154     H      0.459360000000     0.202300000000     0.189110000000     0.0392111  
H155     H      0.009340000000     0.207800000000     0.145480000000     0.042867   
H156     H      0.488560000000     0.302430000000     0.215020000000     0.042142   
H157     H      0.508910000000     0.309920000000     0.139330000000     0.0415556  
H158     H      0.041470000000     0.308240000000     0.175310000000     0.0404688  
H159     H      0.993380000000     0.202600000000     0.223750000000     0.0415314  
H160     H      0.042560000000     0.244790000000     0.177500000000     0.0391623  
H161     H      0.485550000000     0.053140000000     0.483180000000     0.0399673  
H162     H      0.048480000000     0.053080000000     0.479760000000     0.0389922  
H163     H      0.046230000000     0.507190000000     0.528810000000     0.0430466  
H164     H      0.447980000000     0.018880000000     0.452020000000     0.041479   
H165     H      0.442170000000     0.004290000000     0.530150000000     0.0416051  
H166     H      0.443520000000     0.468670000000     0.500260000000     0.0414604  
H167     H      0.048620000000     0.514620000000     0.449140000000     0.0422194  
H168     H      0.009780000000     0.469830000000     0.500440000000     0.0409418  
H169     H      0.375040000000     0.353490000000     0.380780000000     0.0383291  
H170     H      0.338970000000     0.390740000000     0.379070000000     0.0389191  
H171     H      0.365780000000     0.439370000000     0.326420000000     0.042231   
H172     H      0.366060000000     0.321440000000     0.338410000000     0.0425379  
H173     H      0.425170000000     0.380560000000     0.330500000000     0.0423597  
H174     H      0.394370000000     0.370280000000     0.286490000000     0.0387696  
H175     H      0.307100000000     0.380840000000     0.336180000000     0.042714   
H176     H      0.356380000000     0.406990000000     0.284210000000     0.0396316  
H177     H      0.097270000000     0.146900000000     0.273960000000     0.0394461  
H178     H      0.132940000000     0.110690000000     0.276230000000     0.0389163  
H179     H      0.173150000000     0.128860000000     0.338470000000     0.0425155  
H180     H      0.058540000000     0.132500000000     0.308680000000     0.0435371  
H181     H      0.114320000000     0.188650000000     0.334720000000     0.0428104  
H182     H      0.098440000000     0.150940000000     0.371300000000     0.0395222  
H183     H      0.117370000000     0.072710000000     0.312480000000     0.0429683  
H184     H      0.134650000000     0.114110000000     0.373700000000     0.0393749  
H185     H      0.950240000000     0.005270000000     0.158550000000     0.040674   
H186     H      0.450340000000     0.443140000000     0.167820000000     0.0388114  
H187     H      0.498300000000     0.443830000000     0.124610000000     0.0425254  
H188     H      0.984370000000     0.044590000000     0.187700000000     0.041462   
H189     H      0.000100000000     0.046200000000     0.110870000000     0.0416599  
H190     H      0.033890000000     0.045540000000     0.145610000000     0.0407018  
H191     H      0.483860000000     0.442780000000     0.202730000000     0.0419154  
H192     H      0.533270000000     0.481320000000     0.154500000000     0.0398673  
H193     H      0.283540000000     0.887790000000     0.617430000000     0.0392073  
H194     H      0.210500000000     0.851070000000     0.621430000000     0.0392849  
H195     H      0.190110000000     0.808070000000     0.681080000000     0.0426769  
H196     H      0.307730000000     0.924300000000     0.654950000000     0.0423432  
H197     H      0.308440000000     0.867000000000     0.674110000000     0.0426391  
H198     H      0.287410000000     0.880940000000     0.714050000000     0.0389952  
H199     H      0.189390000000     0.865090000000     0.661290000000     0.0424304  
H200     H      0.214700000000     0.844890000000     0.718260000000     0.0391264  
H201     H      0.287150000000     0.631280000000     0.710470000000     0.0390532  
H202     H      0.214140000000     0.594780000000     0.715160000000     0.0392167  
H203     H      0.188690000000     0.614850000000     0.658210000000     0.0424403  
H204     H      0.307970000000     0.617120000000     0.670480000000     0.0428605  
H205     H      0.307040000000     0.674060000000     0.650650000000     0.0424612  
H206     H      0.282260000000     0.637100000000     0.613780000000     0.0389912  
H207     H      0.189630000000     0.557930000000     0.678050000000     0.0428461  
H208     H      0.209820000000     0.600840000000     0.618390000000     0.038757   
H209     H      0.528730000000     0.889890000000     0.612370000000     0.0387508  
H210     H      0.457020000000     0.853630000000     0.614750000000     0.0384876  
H211     H      0.435320000000     0.815980000000     0.679190000000     0.0424952  
H212     H      0.052800000000     0.930070000000     0.645030000000     0.0426256  
H213     H      0.053860000000     0.875600000000     0.674950000000     0.0424285  
H214     H      0.031930000000     0.892660000000     0.709760000000     0.0403151  
H215     H      0.434280000000     0.870260000000     0.648990000000     0.0423919  
H216     H      0.958860000000     0.856000000000     0.712270000000     0.0387853  
H217     H      0.032090000000     0.653570000000     0.627890000000     0.0399254  
H218     H      0.457080000000     0.615940000000     0.627620000000     0.0395218  
H219     H      0.434980000000     0.563600000000     0.675120000000     0.0421661  
H220     H      0.053480000000     0.681770000000     0.673680000000     0.0426237  
H221     H      0.053220000000     0.622170000000     0.674590000000     0.0423517  
H222     H      0.031050000000     0.628770000000     0.719730000000     0.0391162  
H223     H      0.435390000000     0.623040000000     0.672970000000     0.0426082  
H224     H      0.457720000000     0.592750000000     0.719930000000     0.0391064  
H225     H      0.266430000000     0.795020000000     0.835660000000     0.0412393  
H226     H      0.201650000000     0.730680000000     0.842890000000     0.0397248  
H227     H      0.205220000000     0.686840000000     0.796300000000     0.0419987  
H228     H      0.303730000000     0.798750000000     0.867680000000     0.0417708  
H229     H      0.309870000000     0.786760000000     0.791380000000     0.0422484  
H230     H      0.306030000000     0.750650000000     0.825810000000     0.0403313  
H231     H      0.202130000000     0.696070000000     0.875660000000     0.0424766  
H232     H      0.242030000000     0.688420000000     0.826720000000     0.0387007  
H233     H      0.202980000000     0.970080000000     0.827210000000     0.0410669  
H234     H      0.268920000000     0.537310000000     0.825470000000     0.0399172  
H235     H      0.311600000000     0.532240000000     0.872680000000     0.0420011  
H236     H      0.202660000000     0.934130000000     0.795560000000     0.0407949  
H237     H      0.210060000000     0.927080000000     0.873110000000     0.0420821  
H238     H      0.247360000000     0.930470000000     0.841630000000     0.0398462  
H239     H      0.304390000000     0.537830000000     0.793480000000     0.0428236  
H240     H      0.310530000000     0.496180000000     0.841140000000     0.0386842  
H241     H      0.395590000000     0.788140000000     0.954700000000     0.0389283  
H242     H      0.359130000000     0.715330000000     0.958280000000     0.038858   
H243     H      0.381340000000     0.694370000000     0.017520000000     0.0426723  
H244     H      0.383400000000     0.812450000000     0.992240000000     0.0422648  
H245     H      0.441090000000     0.812810000000     0.011360000000     0.0421634  
H246     H      0.406140000000     0.791980000000     0.051330000000     0.0389272  
H247     H      0.323810000000     0.693960000000     0.997880000000     0.0428929  
H248     H      0.368940000000     0.718540000000     0.055130000000     0.0394769  
H249     H      0.110960000000     0.719010000000     0.059670000000     0.0395317  
H250     H      0.147110000000     0.791740000000     0.056090000000     0.0388803  
H251     H      0.190510000000     0.812740000000     0.997140000000     0.0421407  
H252     H      0.074540000000     0.694610000000     0.022060000000     0.0436246  
H253     H      0.131850000000     0.694260000000     0.003120000000     0.0418446  
H254     H      0.117860000000     0.715180000000     0.963060000000     0.0388704  
H255     H      0.133320000000     0.813130000000     0.016330000000     0.0422848  
H256     H      0.154140000000     0.788600000000     0.959330000000     0.0392845  
H257     H      0.991630000000     0.697110000000     0.856420000000     0.0400221  
H258     H      0.054860000000     0.761950000000     0.854960000000     0.0400279  
H259     H      0.048310000000     0.801630000000     0.804440000000     0.0426371  
H260     H      0.455170000000     0.695230000000     0.888430000000     0.0416384  
H261     H      0.446150000000     0.699530000000     0.810120000000     0.0413188  
H262     H      0.448380000000     0.737120000000     0.840200000000     0.0409164  
H263     H      0.055660000000     0.799090000000     0.883820000000     0.0429248  
H264     H      0.512480000000     0.801640000000     0.835190000000     0.0396321  
H265     H      0.357590000000     0.952500000000     0.051390000000     0.0390572  
H266     H      0.393560000000     0.025210000000     0.046420000000     0.038573   
H267     H      0.434680000000     0.545970000000     0.984180000000     0.0428442  
H268     H      0.319060000000     0.927730000000     0.016820000000     0.0421373  
H269     H      0.374540000000     0.926650000000     0.991260000000     0.0425063  
H270     H      0.359780000000     0.448140000000     0.954350000000     0.0391951  
H271     H      0.378730000000     0.546890000000     0.008980000000     0.0426453  
H272     H      0.396120000000     0.521510000000     0.949220000000     0.0394973  
H273     H      0.114160000000     0.945270000000     0.945750000000     0.0384108  
H274     H      0.150570000000     0.519070000000     0.938540000000     0.0386034  
H275     H      0.128710000000     0.546240000000     0.991140000000     0.0439356  
H276     H      0.125570000000     0.926040000000     0.990080000000     0.0423799  
H277     H      0.067600000000     0.927220000000     0.000230000000     0.0427915  
H278     H      0.100900000000     0.951320000000     0.041080000000     0.0391298  
H279     H      0.186230000000     0.544780000000     0.976560000000     0.0427252  
H280     H      0.141620000000     0.526860000000     0.034140000000     0.0396467  
H281     H      0.447710000000     0.474370000000     0.820860000000     0.0409793  
H282     H      0.013780000000     0.538180000000     0.820710000000     0.0413048  
H283     H      0.057370000000     0.529550000000     0.863180000000     0.0418617  
H284     H      0.444840000000     0.937410000000     0.784440000000     0.0410261  
H285     H      0.452120000000     0.928680000000     0.862170000000     0.0413843  
H286     H      0.487930000000     0.930230000000     0.829330000000     0.0395672  
H287     H      0.048440000000     0.539470000000     0.786430000000     0.0424966  
H288     H      0.051610000000     0.992480000000     0.829180000000     0.039234   
H289     H      0.190050000000     0.709810000000     0.509180000000     0.0407545  
H290     H      0.255130000000     0.711740000000     0.503030000000     0.040484   
H291     H      0.296910000000     0.762780000000     0.457650000000     0.0419599  
H292     H      0.189190000000     0.743600000000     0.543720000000     0.0412853  
H293     H      0.192910000000     0.759050000000     0.465330000000     0.0411295  
H294     H      0.230140000000     0.793540000000     0.496680000000     0.0399501  
H295     H      0.292280000000     0.745580000000     0.534360000000     0.042792   
H296     H      0.293920000000     0.795080000000     0.492300000000     0.0392921  
H297     H      0.208590000000     0.765940000000     0.168190000000     0.0405436  
H298     H      0.207710000000     0.701670000000     0.173820000000     0.039249   
H299     H      0.257310000000     0.705650000000     0.130730000000     0.0423132  
H300     H      0.241050000000     0.802580000000     0.201850000000     0.0414598  
H301     H      0.261220000000     0.809870000000     0.125690000000     0.0419049  
H302     H      0.292800000000     0.806480000000     0.161620000000     0.0406795  
H303     H      0.240610000000     0.700140000000     0.208670000000     0.0422767  
H304     H      0.291030000000     0.741670000000     0.163380000000     0.0395044  
H305     H      0.199490000000     0.967940000000     0.505050000000     0.040549   
H306     H      0.266170000000     0.971250000000     0.501680000000     0.0408679  
H307     H      0.309270000000     0.524660000000     0.461620000000     0.0416213  
H308     H      0.196840000000     0.999500000000     0.541640000000     0.0412973  
H309     H      0.204620000000     0.020510000000     0.465160000000     0.041118   
H310     H      0.239270000000     0.550770000000     0.500590000000     0.0396687  
H311     H      0.299570000000     0.500470000000     0.536090000000     0.0429004  
H312     H      0.303140000000     0.553290000000     0.499180000000     0.039233   
H313     H      0.286830000000     0.489090000000     0.181280000000     0.0419783  
H314     H      0.285490000000     0.554520000000     0.177470000000     0.0389965  
H315     H      0.245850000000     0.046100000000     0.119680000000     0.0423743  
H316     H      0.250610000000     0.453550000000     0.212640000000     0.0417528  
H317     H      0.239520000000     0.441840000000     0.135380000000     0.0421565  
H318     H      0.203340000000     0.947040000000     0.160830000000     0.0408789  
H319     H      0.243100000000     0.051180000000     0.200380000000     0.0427567  
H320     H      0.205350000000     0.011410000000     0.145540000000     0.0377809  
H321     H      0.448090000000     0.721560000000     0.513860000000     0.0407929  
H322     H      0.511000000000     0.719240000000     0.515540000000     0.039796   
H323     H      0.556600000000     0.770290000000     0.473750000000     0.0422534  
H324     H      0.945250000000     0.753200000000     0.550330000000     0.0409383  
H325     H      0.957360000000     0.776440000000     0.475470000000     0.0425129  
H326     H      0.993560000000     0.805920000000     0.511530000000     0.0392735  
H327     H      0.546240000000     0.750540000000     0.550850000000     0.0422548  
H328     H      0.054970000000     0.802910000000     0.509150000000     0.0401734  
H329     H      0.357220000000     0.658900000000     0.389830000000     0.0391521  
H330     H      0.393860000000     0.623490000000     0.395630000000     0.0388679  
H331     H      0.379020000000     0.581340000000     0.335630000000     0.0420802  
H332     H      0.373350000000     0.696390000000     0.352840000000     0.0426083  
H333     H      0.318780000000     0.639380000000     0.325970000000     0.0426978  
H334     H      0.358340000000     0.654410000000     0.292580000000     0.039253   
H335     H      0.433590000000     0.638330000000     0.362510000000     0.0430777  
H336     H      0.395410000000     0.618700000000     0.298370000000     0.0390311  
H337     H      0.100380000000     0.899370000000     0.290590000000     0.0392818  
H338     H      0.136470000000     0.862270000000     0.292060000000     0.0390433  
H339     H      0.184190000000     0.887640000000     0.346250000000     0.0424524  
H340     H      0.067240000000     0.889640000000     0.331830000000     0.0429688  
H341     H      0.126280000000     0.948060000000     0.343530000000     0.0430608  
H342     H      0.115000000000     0.915510000000     0.385810000000     0.0392336  
H343     H      0.125320000000     0.829330000000     0.333990000000     0.0425058  
H344     H      0.150960000000     0.877700000000     0.387550000000     0.0396252  
H345     H      0.457480000000     0.764520000000     0.182290000000     0.0402603  
H346     H      0.459740000000     0.702440000000     0.189330000000     0.0391842  
H347     H      0.009620000000     0.708050000000     0.145450000000     0.042883   
H348     H      0.488770000000     0.802560000000     0.215180000000     0.0421321  
H349     H      0.508960000000     0.810060000000     0.139440000000     0.0415247  
H350     H      0.041640000000     0.808470000000     0.175310000000     0.0404781  
H351     H      0.993940000000     0.702930000000     0.223820000000     0.0415015  
H352     H      0.042900000000     0.745100000000     0.177370000000     0.0391737  
H353     H      0.485220000000     0.551860000000     0.481490000000     0.0400639  
H354     H      0.048980000000     0.551610000000     0.477760000000     0.0387346  
H355     H      0.045410000000     0.006540000000     0.527440000000     0.0434094  
H356     H      0.447310000000     0.515860000000     0.452590000000     0.0413443  
H357     H      0.442860000000     0.504440000000     0.531160000000     0.0411368  
H358     H      0.443370000000     0.969590000000     0.497640000000     0.0414657  
H359     H      0.049890000000     0.018200000000     0.448390000000     0.0418789  
H360     H      0.009170000000     0.970600000000     0.497220000000     0.0414569  
H361     H      0.374480000000     0.853910000000     0.381070000000     0.0382776  
H362     H      0.338190000000     0.890930000000     0.378820000000     0.0388817  
H363     H      0.365560000000     0.939880000000     0.326690000000     0.0421033  
H364     H      0.366020000000     0.822060000000     0.338640000000     0.0425202  
H365     H      0.425090000000     0.881270000000     0.331490000000     0.0424064  
H366     H      0.394730000000     0.871100000000     0.287040000000     0.0388292  
H367     H      0.306800000000     0.881160000000     0.335430000000     0.042686   
H368     H      0.356610000000     0.907830000000     0.284240000000     0.0396117  
H369     H      0.096800000000     0.646110000000     0.274320000000     0.039418   
H370     H      0.132680000000     0.609970000000     0.276460000000     0.0389338  
H371     H      0.173630000000     0.629010000000     0.338010000000     0.0424969  
H372     H      0.058450000000     0.631920000000     0.309590000000     0.0435383  
H373     H      0.114380000000     0.688380000000     0.334580000000     0.042813   
H374     H      0.099020000000     0.651030000000     0.371610000000     0.0395043  
H375     H      0.117580000000     0.572440000000     0.313280000000     0.0428966  
H376     H      0.135550000000     0.614480000000     0.373850000000     0.0393389  
H377     H      0.951430000000     0.506410000000     0.157490000000     0.0404222  
H378     H      0.449490000000     0.941790000000     0.170540000000     0.0382099  
H379     H      0.494860000000     0.941930000000     0.123990000000     0.0426472  
H380     H      0.984750000000     0.545080000000     0.188170000000     0.0414292  
H381     H      0.002670000000     0.547930000000     0.111780000000     0.0417533  
H382     H      0.035380000000     0.546710000000     0.147830000000     0.0404662  
H383     H      0.485300000000     0.943390000000     0.202860000000     0.0421493  
H384     H      0.532030000000     0.979540000000     0.151390000000     0.0391652  
H385     H      0.783230000000     0.387670000000     0.618200000000     0.0392405  
H386     H      0.710030000000     0.350810000000     0.622460000000     0.0393032  
H387     H      0.689960000000     0.307690000000     0.681930000000     0.0426663  
H388     H      0.807400000000     0.424080000000     0.655830000000     0.0423992  
H389     H      0.808260000000     0.366810000000     0.674650000000     0.0426573  
H390     H      0.787240000000     0.380590000000     0.714760000000     0.0389455  
H391     H      0.689100000000     0.364760000000     0.662620000000     0.0423828  
H392     H      0.714580000000     0.344420000000     0.719200000000     0.0390553  
H393     H      0.787380000000     0.131690000000     0.712170000000     0.0390145  
H394     H      0.714580000000     0.095250000000     0.716680000000     0.0391532  
H395     H      0.689010000000     0.114680000000     0.659160000000     0.0424287  
H396     H      0.808420000000     0.117350000000     0.672650000000     0.042821   
H397     H      0.807390000000     0.174080000000     0.651940000000     0.0424839  
H398     H      0.782770000000     0.136850000000     0.615350000000     0.0390935  
H399     H      0.690050000000     0.058030000000     0.680020000000     0.0428852  
H400     H      0.710270000000     0.100430000000     0.619780000000     0.0387867  
H401     H      0.029410000000     0.390790000000     0.613730000000     0.0395954  
H402     H      0.957550000000     0.354400000000     0.615890000000     0.0379867  
H403     H      0.935690000000     0.316050000000     0.679770000000     0.0424945  
H404     H      0.553320000000     0.430480000000     0.647150000000     0.0428098  
H405     H      0.554220000000     0.375510000000     0.675760000000     0.0425252  
H406     H      0.532330000000     0.392210000000     0.711140000000     0.039452   
H407     H      0.934790000000     0.370680000000     0.650600000000     0.0424844  
H408     H      0.459230000000     0.355690000000     0.713430000000     0.0392869  
H409     H      0.531900000000     0.153320000000     0.627230000000     0.0392349  
H410     H      0.956880000000     0.115840000000     0.626980000000     0.0389558  
H411     H      0.934710000000     0.063330000000     0.674210000000     0.042193   
H412     H      0.553340000000     0.181360000000     0.673110000000     0.0427554  
H413     H      0.552940000000     0.121710000000     0.673720000000     0.0425032  
H414     H      0.530800000000     0.128230000000     0.718940000000     0.0384084  
H415     H      0.935260000000     0.122860000000     0.672450000000     0.0426437  
H416     H      0.957470000000     0.092300000000     0.719140000000     0.0385102  
H417     H      0.766300000000     0.294850000000     0.836130000000     0.041227   
H418     H      0.701620000000     0.230460000000     0.843280000000     0.0396601  
H419     H      0.705360000000     0.186620000000     0.796820000000     0.0419256  
H420     H      0.803610000000     0.298690000000     0.868230000000     0.0417526  
H421     H      0.809870000000     0.286710000000     0.791960000000     0.042216   
H422     H      0.806090000000     0.250660000000     0.826440000000     0.0402725  
H423     H      0.702110000000     0.195890000000     0.876130000000     0.0424227  
H424     H      0.742190000000     0.188350000000     0.827340000000     0.0386698  
H425     H      0.704040000000     0.471550000000     0.828710000000     0.0412806  
H426     H      0.768700000000     0.036070000000     0.825470000000     0.0400219  
H427     H      0.810730000000     0.030880000000     0.873730000000     0.0417985  
H428     H      0.702220000000     0.435630000000     0.795630000000     0.0409995  
H429     H      0.711670000000     0.427550000000     0.872570000000     0.0423146  
H430     H      0.748790000000     0.432410000000     0.839320000000     0.0401442  
H431     H      0.804510000000     0.036300000000     0.794450000000     0.0429119  
H432     H      0.809600000000     0.994470000000     0.842840000000     0.0382104  
H433     H      0.895370000000     0.287910000000     0.954870000000     0.038703   
H434     H      0.858910000000     0.215110000000     0.958440000000     0.0387786  
H435     H      0.881230000000     0.194110000000     0.017510000000     0.0425838  
H436     H      0.883290000000     0.312220000000     0.992530000000     0.0422404  
H437     H      0.941020000000     0.312550000000     0.011370000000     0.0415667  
H438     H      0.906170000000     0.291750000000     0.051460000000     0.0385754  
H439     H      0.823680000000     0.193730000000     0.998130000000     0.0428864  
H440     H      0.868940000000     0.218280000000     0.055240000000     0.0393656  
H441     H      0.610780000000     0.218760000000     0.059970000000     0.0392765  
H442     H      0.646910000000     0.291460000000     0.056450000000     0.0388511  
H443     H      0.690420000000     0.312530000000     0.997620000000     0.0421418  
H444     H      0.574430000000     0.194350000000     0.022270000000     0.0430093  
H445     H      0.631780000000     0.194040000000     0.003500000000     0.0417102  
H446     H      0.617850000000     0.214970000000     0.963380000000     0.0386197  
H447     H      0.633180000000     0.312880000000     0.016640000000     0.0423351  
H448     H      0.654120000000     0.288400000000     0.959710000000     0.0392219  
H449     H      0.491640000000     0.196710000000     0.856510000000     0.040655   
H450     H      0.554890000000     0.261520000000     0.855080000000     0.039235   
H451     H      0.548460000000     0.301160000000     0.804410000000     0.042821   
H452     H      0.955130000000     0.194890000000     0.888390000000     0.0417802  
H453     H      0.946260000000     0.199110000000     0.810010000000     0.0411044  
H454     H      0.948440000000     0.236730000000     0.839990000000     0.040192   
H455     H      0.555680000000     0.298700000000     0.883820000000     0.0426828  
H456     H      0.012610000000     0.301260000000     0.835020000000     0.0404498  
H457     H      0.859000000000     0.453680000000     0.051500000000     0.0391232  
H458     H      0.894690000000     0.525810000000     0.046560000000     0.038375   
H459     H      0.933280000000     0.045020000000     0.983310000000     0.0422284  
H460     H      0.820190000000     0.428530000000     0.017170000000     0.0421437  
H461     H      0.876050000000     0.427640000000     0.992190000000     0.0424646  
H462     H      0.857990000000     0.947250000000     0.953870000000     0.0390505  
H463     H      0.877550000000     0.045890000000     0.008590000000     0.0423963  
H464     H      0.894400000000     0.020580000000     0.948760000000     0.0392136  
H465     H      0.614190000000     0.446710000000     0.945640000000     0.0386104  
H466     H      0.650220000000     0.018290000000     0.938980000000     0.0386827  
H467     H      0.627100000000     0.045140000000     0.990390000000     0.043885   
H468     H      0.626670000000     0.426700000000     0.988300000000     0.042311   
H469     H      0.569040000000     0.428200000000     0.002450000000     0.0421868  
H470     H      0.604200000000     0.453050000000     0.041210000000     0.0392606  
H471     H      0.685000000000     0.043930000000     0.977960000000     0.0426493  
H472     H      0.639190000000     0.025750000000     0.034140000000     0.0396439  
H473     H      0.946560000000     0.973180000000     0.817670000000     0.0401195  
H474     H      0.513290000000     0.037440000000     0.818310000000     0.0405329  
H475     H      0.556090000000     0.029120000000     0.862550000000     0.0416794  
H476     H      0.944520000000     0.438760000000     0.786150000000     0.0411066  
H477     H      0.953430000000     0.428820000000     0.863420000000     0.0416621  
H478     H      0.988940000000     0.431460000000     0.828870000000     0.0391645  
H479     H      0.548320000000     0.038180000000     0.785170000000     0.0427548  
H480     H      0.552300000000     0.493190000000     0.828890000000     0.0388824  
H481     H      0.690070000000     0.209580000000     0.509750000000     0.0406503  
H482     H      0.755140000000     0.211450000000     0.503620000000     0.0405158  
H483     H      0.796860000000     0.262400000000     0.458120000000     0.0419403  
H484     H      0.689250000000     0.243390000000     0.544280000000     0.0411752  
H485     H      0.692950000000     0.258830000000     0.465890000000     0.0410638  
H486     H      0.730220000000     0.293310000000     0.497200000000     0.039977   
H487     H      0.792310000000     0.245330000000     0.534890000000     0.0428167  
H488     H      0.793980000000     0.294780000000     0.492720000000     0.0392524  
H489     H      0.708600000000     0.265890000000     0.168700000000     0.0405061  
H490     H      0.707480000000     0.201500000000     0.174290000000     0.0391428  
H491     H      0.757010000000     0.205310000000     0.131230000000     0.0423097  
H492     H      0.741140000000     0.302460000000     0.202380000000     0.0414939  
H493     H      0.761300000000     0.309710000000     0.126220000000     0.0418908  
H494     H      0.792810000000     0.306190000000     0.162140000000     0.0406017  
H495     H      0.740290000000     0.199820000000     0.209150000000     0.0422369  
H496     H      0.790790000000     0.241260000000     0.163900000000     0.0394682  
H497     H      0.699170000000     0.466360000000     0.502960000000     0.0405605  
H498     H      0.764950000000     0.469440000000     0.499960000000     0.0410185  
H499     H      0.809640000000     0.026200000000     0.461670000000     0.0414918  
H500     H      0.695370000000     0.496640000000     0.540560000000     0.0415117  
H501     H      0.704370000000     0.519260000000     0.464450000000     0.0409722  
H502     H      0.739810000000     0.052550000000     0.500670000000     0.0396291  
H503     H      0.800930000000     0.003700000000     0.536580000000     0.0433859  
H504     H      0.803800000000     0.055280000000     0.498830000000     0.0388645  
H505     H      0.785580000000     0.988600000000     0.182990000000     0.0420133  
H506     H      0.784170000000     0.054400000000     0.179120000000     0.0387359  
H507     H      0.745780000000     0.546310000000     0.118980000000     0.0422065  
H508     H      0.748880000000     0.952920000000     0.213710000000     0.0416532  
H509     H      0.739070000000     0.941560000000     0.136250000000     0.0420761  
H510     H      0.704270000000     0.447590000000     0.160820000000     0.0407684  
H511     H      0.745560000000     0.552480000000     0.200230000000     0.0425588  
H512     H      0.706310000000     0.511720000000     0.146400000000     0.0379657  
H513     H      0.948130000000     0.221820000000     0.513900000000     0.0400823  
H514     H      0.010950000000     0.219240000000     0.515490000000     0.0405697  
H515     H      0.056550000000     0.270120000000     0.473510000000     0.0424722  
H516     H      0.445520000000     0.253620000000     0.550330000000     0.0411065  
H517     H      0.457550000000     0.276700000000     0.475400000000     0.0423284  
H518     H      0.493870000000     0.306160000000     0.511340000000     0.0399722  
H519     H      0.046300000000     0.250560000000     0.550690000000     0.0421233  
H520     H      0.555130000000     0.302890000000     0.508860000000     0.0394456  
H521     H      0.856870000000     0.159320000000     0.389710000000     0.0390466  
H522     H      0.893170000000     0.123540000000     0.395350000000     0.0386738  
H523     H      0.878410000000     0.081600000000     0.335060000000     0.0420442  
H524     H      0.873160000000     0.196830000000     0.352730000000     0.042562   
H525     H      0.818360000000     0.139870000000     0.325930000000     0.0426149  
H526     H      0.857860000000     0.154860000000     0.292450000000     0.0391542  
H527     H      0.932950000000     0.138310000000     0.362330000000     0.0425171  
H528     H      0.894870000000     0.119130000000     0.298050000000     0.038785   
H529     H      0.600460000000     0.398770000000     0.289720000000     0.0389001  
H530     H      0.636170000000     0.361320000000     0.291140000000     0.0389003  
H531     H      0.684410000000     0.387050000000     0.344620000000     0.0423669  
H532     H      0.567620000000     0.389470000000     0.331210000000     0.0423266  
H533     H      0.626830000000     0.447780000000     0.342210000000     0.0429367  
H534     H      0.615740000000     0.415490000000     0.384760000000     0.0390201  
H535     H      0.625230000000     0.328710000000     0.333410000000     0.0424433  
H536     H      0.651640000000     0.377470000000     0.386380000000     0.0395708  
H537     H      0.957290000000     0.264430000000     0.182070000000     0.040552   
H538     H      0.959360000000     0.202300000000     0.189110000000     0.0395608  
H539     H      0.509340000000     0.207800000000     0.145480000000     0.0422891  
H540     H      0.988570000000     0.302430000000     0.215020000000     0.0420337  
H541     H      0.008910000000     0.309920000000     0.139330000000     0.0418583  
H542     H      0.541470000000     0.308240000000     0.175310000000     0.0407337  
H543     H      0.493380000000     0.202600000000     0.223750000000     0.0420725  
H544     H      0.542560000000     0.244790000000     0.177500000000     0.0395192  
H545     H      0.985550000000     0.053140000000     0.483180000000     0.038974   
H546     H      0.548480000000     0.053080000000     0.479760000000     0.0385641  
H547     H      0.546230000000     0.507190000000     0.528810000000     0.0430935  
H548     H      0.947980000000     0.018880000000     0.452020000000     0.0414195  
H549     H      0.942170000000     0.004290000000     0.530150000000     0.0415537  
H550     H      0.943520000000     0.468670000000     0.500260000000     0.0411071  
H551     H      0.548620000000     0.514620000000     0.449140000000     0.0422405  
H552     H      0.509780000000     0.469830000000     0.500440000000     0.0398731  
H553     H      0.875040000000     0.353490000000     0.380780000000     0.0381661  
H554     H      0.838970000000     0.390740000000     0.379070000000     0.0388761  
H555     H      0.865780000000     0.439370000000     0.326420000000     0.042206   
H556     H      0.866060000000     0.321440000000     0.338410000000     0.0424533  
H557     H      0.925170000000     0.380560000000     0.330500000000     0.0418454  
H558     H      0.894370000000     0.370280000000     0.286490000000     0.0385454  
H559     H      0.807100000000     0.380840000000     0.336180000000     0.0427147  
H560     H      0.856380000000     0.406990000000     0.284210000000     0.0396006  
H561     H      0.597270000000     0.146900000000     0.273960000000     0.0391178  
H562     H      0.632940000000     0.110690000000     0.276230000000     0.038802   
H563     H      0.673150000000     0.128860000000     0.338470000000     0.0424966  
H564     H      0.558540000000     0.132500000000     0.308680000000     0.0428097  
H565     H      0.614320000000     0.188650000000     0.334720000000     0.0426161  
H566     H      0.598440000000     0.150940000000     0.371300000000     0.0391466  
H567     H      0.617370000000     0.072710000000     0.312480000000     0.0428725  
H568     H      0.634650000000     0.114110000000     0.373700000000     0.0392469  
H569     H      0.450240000000     0.005270000000     0.158550000000     0.0403228  
H570     H      0.950340000000     0.443140000000     0.167820000000     0.0398105  
H571     H      0.998300000000     0.443830000000     0.124610000000     0.0374013  
H572     H      0.484370000000     0.044590000000     0.187700000000     0.041606   
H573     H      0.500100000000     0.046200000000     0.110870000000     0.0413569  
H574     H      0.533890000000     0.045540000000     0.145610000000     0.0410281  
H575     H      0.983860000000     0.442780000000     0.202730000000     0.04206    
H576     H      0.033270000000     0.481320000000     0.154500000000     0.0385633  
H577     H      0.783540000000     0.887790000000     0.617430000000     0.0392054  
H578     H      0.710500000000     0.851070000000     0.621430000000     0.0392439  
H579     H      0.690110000000     0.808070000000     0.681080000000     0.0426555  
H580     H      0.807730000000     0.924300000000     0.654950000000     0.0423461  
H581     H      0.808440000000     0.867000000000     0.674110000000     0.0426389  
H582     H      0.787410000000     0.880940000000     0.714050000000     0.0389916  
H583     H      0.689390000000     0.865090000000     0.661290000000     0.0423814  
H584     H      0.714700000000     0.844890000000     0.718260000000     0.0391177  
H585     H      0.787150000000     0.631280000000     0.710470000000     0.0390516  
H586     H      0.714140000000     0.594780000000     0.715160000000     0.0392021  
H587     H      0.688690000000     0.614850000000     0.658210000000     0.042417   
H588     H      0.807970000000     0.617120000000     0.670480000000     0.0428538  
H589     H      0.807040000000     0.674060000000     0.650650000000     0.0424621  
H590     H      0.782260000000     0.637100000000     0.613780000000     0.0389838  
H591     H      0.689630000000     0.557930000000     0.678050000000     0.0428191  
H592     H      0.709820000000     0.600840000000     0.618390000000     0.0387393  
H593     H      0.028730000000     0.889890000000     0.612370000000     0.0395786  
H594     H      0.957020000000     0.853630000000     0.614750000000     0.0379049  
H595     H      0.935320000000     0.815980000000     0.679190000000     0.042537   
H596     H      0.552800000000     0.930070000000     0.645030000000     0.0427521  
H597     H      0.553860000000     0.875600000000     0.674950000000     0.0425802  
H598     H      0.531940000000     0.892660000000     0.709760000000     0.0395903  
H599     H      0.934280000000     0.870260000000     0.648990000000     0.0424233  
H600     H      0.458860000000     0.856000000000     0.712270000000     0.0393458  
H601     H      0.532090000000     0.653570000000     0.627890000000     0.0392392  
H602     H      0.957080000000     0.615940000000     0.627620000000     0.0389547  
H603     H      0.934980000000     0.563600000000     0.675120000000     0.0421992  
H604     H      0.553480000000     0.681770000000     0.673680000000     0.0427514  
H605     H      0.553220000000     0.622170000000     0.674590000000     0.0424824  
H606     H      0.531050000000     0.628770000000     0.719730000000     0.0383932  
H607     H      0.935390000000     0.623040000000     0.672970000000     0.0426363  
H608     H      0.957720000000     0.592750000000     0.719930000000     0.0384971  
H609     H      0.766430000000     0.795020000000     0.835660000000     0.0412281  
H610     H      0.701650000000     0.730680000000     0.842890000000     0.0396478  
H611     H      0.705220000000     0.686840000000     0.796300000000     0.0419488  
H612     H      0.803730000000     0.798750000000     0.867680000000     0.0417318  
H613     H      0.809870000000     0.786760000000     0.791380000000     0.0422048  
H614     H      0.806030000000     0.750650000000     0.825810000000     0.04028    
H615     H      0.702130000000     0.696070000000     0.875660000000     0.0424145  
H616     H      0.742030000000     0.688420000000     0.826720000000     0.0386912  
H617     H      0.702980000000     0.970080000000     0.827210000000     0.0410123  
H618     H      0.768920000000     0.537310000000     0.825470000000     0.0399059  
H619     H      0.811600000000     0.532240000000     0.872680000000     0.0419307  
H620     H      0.702660000000     0.934130000000     0.795560000000     0.0407491  
H621     H      0.710060000000     0.927080000000     0.873110000000     0.0420531  
H622     H      0.747360000000     0.930470000000     0.841630000000     0.0398375  
H623     H      0.804390000000     0.537830000000     0.793480000000     0.0427803  
H624     H      0.810530000000     0.496180000000     0.841140000000     0.0386135  
H625     H      0.895590000000     0.788140000000     0.954700000000     0.0386688  
H626     H      0.859130000000     0.715330000000     0.958280000000     0.0387609  
H627     H      0.881340000000     0.694370000000     0.017520000000     0.0425851  
H628     H      0.883400000000     0.812450000000     0.992240000000     0.0421645  
H629     H      0.941090000000     0.812810000000     0.011360000000     0.0415527  
H630     H      0.906140000000     0.791980000000     0.051330000000     0.0386235  
H631     H      0.823810000000     0.693960000000     0.997880000000     0.0428785  
H632     H      0.868940000000     0.718540000000     0.055130000000     0.0393613  
H633     H      0.610960000000     0.719010000000     0.059670000000     0.0392967  
H634     H      0.647110000000     0.791740000000     0.056090000000     0.0388432  
H635     H      0.690510000000     0.812740000000     0.997140000000     0.0421362  
H636     H      0.574540000000     0.694610000000     0.022060000000     0.043038   
H637     H      0.631850000000     0.694260000000     0.003120000000     0.0416984  
H638     H      0.617860000000     0.715180000000     0.963060000000     0.0386144  
H639     H      0.633320000000     0.813130000000     0.016330000000     0.0422618  
H640     H      0.654130000000     0.788600000000     0.959330000000     0.0392143  
H641     H      0.491630000000     0.697110000000     0.856420000000     0.0406701  
H642     H      0.554860000000     0.761950000000     0.854960000000     0.0392978  
H643     H      0.548310000000     0.801630000000     0.804440000000     0.0427873  
H644     H      0.955170000000     0.695230000000     0.888430000000     0.0417964  
H645     H      0.946150000000     0.699530000000     0.810120000000     0.0411389  
H646     H      0.948380000000     0.737120000000     0.840200000000     0.0401731  
H647     H      0.555660000000     0.799090000000     0.883820000000     0.0427307  
H648     H      0.012480000000     0.801640000000     0.835190000000     0.0404383  
H649     H      0.857590000000     0.952500000000     0.051390000000     0.0389245  
H650     H      0.893560000000     0.025210000000     0.046420000000     0.0382092  
H651     H      0.934680000000     0.545970000000     0.984180000000     0.0421962  
H652     H      0.819060000000     0.927730000000     0.016820000000     0.0421381  
H653     H      0.874540000000     0.926650000000     0.991260000000     0.0424493  
H654     H      0.859770000000     0.448140000000     0.954350000000     0.0391371  
H655     H      0.878730000000     0.546890000000     0.008980000000     0.0424681  
H656     H      0.896120000000     0.521510000000     0.949220000000     0.0392463  
H657     H      0.614160000000     0.945270000000     0.945750000000     0.0381946  
H658     H      0.650570000000     0.519070000000     0.938540000000     0.0385407  
H659     H      0.628700000000     0.546240000000     0.991140000000     0.0438874  
H660     H      0.625570000000     0.926040000000     0.990080000000     0.0422811  
H661     H      0.567600000000     0.927220000000     0.000230000000     0.0421724  
H662     H      0.600900000000     0.951320000000     0.041080000000     0.0388157  
H663     H      0.686230000000     0.544780000000     0.976560000000     0.0427193  
H664     H      0.641620000000     0.526860000000     0.034140000000     0.0395699  
H665     H      0.947710000000     0.474370000000     0.820860000000     0.0402359  
H666     H      0.513780000000     0.538180000000     0.820710000000     0.0405858  
H667     H      0.557370000000     0.529550000000     0.863180000000     0.0416968  
H668     H      0.944840000000     0.937410000000     0.784440000000     0.0408798  
H669     H      0.952120000000     0.928680000000     0.862170000000     0.0415514  
H670     H      0.987930000000     0.930230000000     0.829330000000     0.0389452  
H671     H      0.548440000000     0.539470000000     0.786430000000     0.0426819  
H672     H      0.551610000000     0.992480000000     0.829180000000     0.0384242  
H673     H      0.690050000000     0.709810000000     0.509180000000     0.0406574  
H674     H      0.755130000000     0.711740000000     0.503030000000     0.0404698  
H675     H      0.796910000000     0.762780000000     0.457650000000     0.0419221  
H676     H      0.689190000000     0.743600000000     0.543720000000     0.0412075  
H677     H      0.692910000000     0.759050000000     0.465330000000     0.0410636  
H678     H      0.730140000000     0.793540000000     0.496680000000     0.0399419  
H679     H      0.792280000000     0.745580000000     0.534360000000     0.0427647  
H680     H      0.793920000000     0.795080000000     0.492300000000     0.0392532  
H681     H      0.708590000000     0.765940000000     0.168190000000     0.0404849  
H682     H      0.707720000000     0.701670000000     0.173820000000     0.0391903  
H683     H      0.757310000000     0.705650000000     0.130730000000     0.0422858  
H684     H      0.741050000000     0.802580000000     0.201850000000     0.0414388  
H685     H      0.761220000000     0.809870000000     0.125690000000     0.0418887  
H686     H      0.792800000000     0.806480000000     0.161620000000     0.0406331  
H687     H      0.740610000000     0.700140000000     0.208670000000     0.0422577  
H688     H      0.791030000000     0.741670000000     0.163380000000     0.0394539  
H689     H      0.699490000000     0.967940000000     0.505050000000     0.0404814  
H690     H      0.766170000000     0.971250000000     0.501680000000     0.0408395  
H691     H      0.809270000000     0.524660000000     0.461620000000     0.0415681  
H692     H      0.696840000000     0.999500000000     0.541640000000     0.0412371  
H693     H      0.704620000000     0.020510000000     0.465160000000     0.0410641  
H694     H      0.739270000000     0.550770000000     0.500590000000     0.0396567  
H695     H      0.799570000000     0.500470000000     0.536090000000     0.0428668  
H696     H      0.803140000000     0.553290000000     0.499180000000     0.0391789  
H697     H      0.786830000000     0.489090000000     0.181280000000     0.0419295  
H698     H      0.785490000000     0.554520000000     0.177470000000     0.0389425  
H699     H      0.745850000000     0.046100000000     0.119680000000     0.0423463  
H700     H      0.750610000000     0.453550000000     0.212640000000     0.0417347  
H701     H      0.739520000000     0.441840000000     0.135380000000     0.042135   
H702     H      0.703340000000     0.947040000000     0.160830000000     0.0408055  
H703     H      0.743100000000     0.051180000000     0.200380000000     0.0427248  
H704     H      0.705350000000     0.011410000000     0.145540000000     0.0377076  
H705     H      0.948090000000     0.721560000000     0.513860000000     0.0400269  
H706     H      0.011000000000     0.719240000000     0.515540000000     0.0405862  
H707     H      0.056600000000     0.770290000000     0.473750000000     0.0424379  
H708     H      0.445250000000     0.753200000000     0.550330000000     0.0410825  
H709     H      0.457360000000     0.776440000000     0.475470000000     0.042353   
H710     H      0.493560000000     0.805920000000     0.511530000000     0.0399572  
H711     H      0.046240000000     0.750540000000     0.550850000000     0.0421236  
H712     H      0.554970000000     0.802910000000     0.509150000000     0.0394367  
H713     H      0.857220000000     0.658900000000     0.389830000000     0.039097   
H714     H      0.893870000000     0.623490000000     0.395630000000     0.0386223  
H715     H      0.879020000000     0.581340000000     0.335630000000     0.0419483  
H716     H      0.873350000000     0.696390000000     0.352840000000     0.0425712  
H717     H      0.818780000000     0.639380000000     0.325970000000     0.0426906  
H718     H      0.858340000000     0.654410000000     0.292580000000     0.03919    
H719     H      0.933590000000     0.638330000000     0.362510000000     0.0424771  
H720     H      0.895410000000     0.618700000000     0.298370000000     0.0387819  
H721     H      0.600380000000     0.899370000000     0.290590000000     0.038945   
H722     H      0.636470000000     0.862270000000     0.292060000000     0.0389071  
H723     H      0.684190000000     0.887640000000     0.346250000000     0.0424491  
H724     H      0.567240000000     0.889640000000     0.331830000000     0.0423439  
H725     H      0.626280000000     0.948060000000     0.343530000000     0.0428764  
H726     H      0.615000000000     0.915510000000     0.385810000000     0.0389641  
H727     H      0.625320000000     0.829330000000     0.333990000000     0.0424198  
H728     H      0.650960000000     0.877700000000     0.387550000000     0.0395693  
H729     H      0.957480000000     0.764520000000     0.182290000000     0.0405732  
H730     H      0.959740000000     0.702440000000     0.189330000000     0.0395334  
H731     H      0.509620000000     0.708050000000     0.145450000000     0.0423084  
H732     H      0.988770000000     0.802560000000     0.215180000000     0.0420114  
H733     H      0.008960000000     0.810060000000     0.139440000000     0.0418266  
H734     H      0.541640000000     0.808470000000     0.175310000000     0.0407442  
H735     H      0.493940000000     0.702930000000     0.223820000000     0.0420477  
H736     H      0.542900000000     0.745100000000     0.177370000000     0.0395344  
H737     H      0.985220000000     0.551860000000     0.481490000000     0.0390517  
H738     H      0.548980000000     0.551610000000     0.477760000000     0.0382576  
H739     H      0.545410000000     0.006540000000     0.527440000000     0.0434498  
H740     H      0.947310000000     0.515860000000     0.452590000000     0.0412719  
H741     H      0.942860000000     0.504440000000     0.531160000000     0.0411049  
H742     H      0.943370000000     0.969590000000     0.497640000000     0.0410932  
H743     H      0.549890000000     0.018200000000     0.448390000000     0.0419801  
H744     H      0.509170000000     0.970600000000     0.497220000000     0.0403733  
H745     H      0.874480000000     0.853910000000     0.381070000000     0.0381292  
H746     H      0.838190000000     0.890930000000     0.378820000000     0.038832   
H747     H      0.865560000000     0.939880000000     0.326690000000     0.0420834  
H748     H      0.866020000000     0.822060000000     0.338640000000     0.0424474  
H749     H      0.925090000000     0.881270000000     0.331490000000     0.0418839  
H750     H      0.894730000000     0.871100000000     0.287040000000     0.0385962  
H751     H      0.806800000000     0.881160000000     0.335430000000     0.0426821  
H752     H      0.856610000000     0.907830000000     0.284240000000     0.0395836  
H753     H      0.596800000000     0.646110000000     0.274320000000     0.039078   
H754     H      0.632680000000     0.609970000000     0.276460000000     0.0388136  
H755     H      0.673630000000     0.629010000000     0.338010000000     0.0424787  
H756     H      0.558450000000     0.631920000000     0.309590000000     0.0427972  
H757     H      0.614380000000     0.688380000000     0.334580000000     0.0426229  
H758     H      0.599030000000     0.651030000000     0.371610000000     0.0391434  
H759     H      0.617580000000     0.572440000000     0.313280000000     0.0427867  
H760     H      0.635550000000     0.614480000000     0.373850000000     0.0392093  
H761     H      0.451430000000     0.506410000000     0.157490000000     0.0400815  
H762     H      0.949490000000     0.941790000000     0.170540000000     0.0392239  
H763     H      0.994860000000     0.941930000000     0.123990000000     0.0376201  
H764     H      0.484750000000     0.545080000000     0.188170000000     0.0415674  
H765     H      0.502670000000     0.547930000000     0.111780000000     0.04147    
H766     H      0.535390000000     0.546710000000     0.147830000000     0.0407774  
H767     H      0.985300000000     0.943390000000     0.202860000000     0.0422235  
H768     H      0.032030000000     0.979540000000     0.151390000000     0.0378659  
N1       N      0.249160000000     0.333860000000     0.680080000000    -0.170388   
N2       N      0.248130000000     0.397740000000     0.656910000000    -0.170284   
N3       N      0.248110000000     0.147720000000     0.653890000000    -0.17084    
N4       N      0.249320000000     0.084370000000     0.678290000000    -0.170636   
N5       N      0.495040000000     0.342630000000     0.680380000000    -0.170618   
N6       N      0.493990000000     0.403880000000     0.647480000000    -0.170644   
N7       N      0.493770000000     0.088790000000     0.675470000000    -0.17024    
N8       N      0.494340000000     0.155940000000     0.669650000000    -0.170089   
N9       N      0.258180000000     0.235840000000     0.790410000000    -0.171039   
N10      N      0.251590000000     0.248970000000     0.875960000000    -0.170779   
N11      N      0.260970000000     0.978270000000     0.877480000000    -0.170863   
N12      N      0.251400000000     0.986970000000     0.791170000000    -0.170577   
N13      N      0.414450000000     0.253360000000     0.016890000000    -0.170839   
N14      N      0.350120000000     0.252940000000     0.993530000000    -0.171039   
N15      N      0.164370000000     0.253250000000     0.998190000000    -0.170785   
N16      N      0.100490000000     0.253640000000     0.021100000000    -0.171026   
N17      N      0.995810000000     0.251180000000     0.803150000000    -0.171645   
N18      N      0.506590000000     0.245760000000     0.890230000000    -0.17013    
N19      N      0.407140000000     0.985750000000     0.984420000000    -0.170034   
N20      N      0.344920000000     0.986890000000     0.014630000000    -0.170066   
N21      N      0.093890000000     0.986380000000     0.998540000000    -0.168597   
N22      N      0.158750000000     0.984770000000     0.982220000000    -0.17039    
N23      N      0.504510000000     0.978120000000     0.866200000000    -0.171357   
N24      N      0.494620000000     0.989570000000     0.781100000000    -0.170829   
N25      N      0.245270000000     0.262010000000     0.458210000000    -0.171212   
N26      N      0.239600000000     0.241810000000     0.543410000000    -0.170902   
N27      N      0.261580000000     0.258590000000     0.124820000000    -0.170188   
N28      N      0.238300000000     0.250190000000     0.209590000000    -0.170275   
N29      N      0.257560000000     0.024660000000     0.459680000000    -0.170955   
N30      N      0.247190000000     0.998070000000     0.542730000000    -0.170426   
N31      N      0.240270000000     0.992440000000     0.123420000000    -0.170195   
N32      N      0.250290000000     0.004750000000     0.211580000000    -0.169747   
N33      N      0.507860000000     0.274970000000     0.470560000000    -0.170825   
N34      N      0.994430000000     0.249450000000     0.554070000000    -0.172396   
N35      N      0.345200000000     0.107340000000     0.328190000000    -0.170317   
N36      N      0.406340000000     0.171020000000     0.359210000000    -0.17027    
N37      N      0.159220000000     0.420920000000     0.346000000000    -0.169878   
N38      N      0.092820000000     0.355550000000     0.330460000000    -0.169809   
N39      N      0.511420000000     0.259970000000     0.138680000000    -0.1712     
N40      N      0.489230000000     0.251780000000     0.223270000000    -0.171167   
N41      N      0.492660000000     0.502040000000     0.534070000000    -0.169876   
N42      N      0.498780000000     0.517170000000     0.446620000000    -0.170532   
N43      N      0.398990000000     0.413430000000     0.325270000000    -0.171095   
N44      N      0.333080000000     0.347670000000     0.339130000000    -0.17108    
N45      N      0.146950000000     0.161980000000     0.338860000000    -0.171172   
N46      N      0.084640000000     0.099280000000     0.309450000000    -0.17109    
N47      N      0.000720000000     0.995290000000     0.113520000000    -0.172998   
N48      N      0.983070000000     0.993470000000     0.199200000000    -0.170101   
N49      N      0.249330000000     0.834160000000     0.679450000000    -0.17037    
N50      N      0.248460000000     0.898030000000     0.655950000000    -0.170366   
N51      N      0.247790000000     0.647810000000     0.652860000000    -0.170758   
N52      N      0.248890000000     0.584200000000     0.676390000000    -0.170648   
N53      N      0.494680000000     0.842670000000     0.679720000000    -0.170592   
N54      N      0.493470000000     0.903460000000     0.645700000000    -0.170802   
N55      N      0.494060000000     0.589180000000     0.676370000000    -0.170301   
N56      N      0.494470000000     0.656210000000     0.670190000000    -0.170106   
N57      N      0.258110000000     0.735960000000     0.789850000000    -0.171037   
N58      N      0.251670000000     0.749100000000     0.875460000000    -0.170798   
N59      N      0.262220000000     0.479350000000     0.876680000000    -0.170488   
N60      N      0.251360000000     0.488360000000     0.790800000000    -0.170284   
N61      N      0.414530000000     0.753620000000     0.016890000000    -0.170776   
N62      N      0.350240000000     0.753160000000     0.993230000000    -0.170986   
N63      N      0.164450000000     0.753470000000     0.997770000000    -0.170665   
N64      N      0.100620000000     0.753900000000     0.020870000000    -0.170947   
N65      N      0.995690000000     0.751610000000     0.803220000000    -0.171683   
N66      N      0.506610000000     0.746120000000     0.890250000000    -0.170189   
N67      N      0.408630000000     0.486730000000     0.985340000000    -0.169831   
N68      N      0.346060000000     0.487770000000     0.014720000000    -0.169665   
N69      N      0.095520000000     0.487480000000     0.999610000000    -0.168429   
N70      N      0.159900000000     0.485600000000     0.981020000000    -0.170276   
N71      N      0.505780000000     0.478590000000     0.867110000000    -0.171039   
N72      N      0.494790000000     0.490720000000     0.782650000000    -0.170723   
N73      N      0.245260000000     0.762300000000     0.457690000000    -0.171226   
N74      N      0.239550000000     0.742050000000     0.542870000000    -0.170972   
N75      N      0.261690000000     0.758850000000     0.124310000000    -0.170127   
N76      N      0.238410000000     0.750400000000     0.209080000000    -0.170292   
N77      N      0.257260000000     0.523280000000     0.459280000000    -0.17083    
N78      N      0.246050000000     0.495590000000     0.541940000000    -0.170291   
N79      N      0.240690000000     0.492750000000     0.122760000000    -0.169888   
N80      N      0.252050000000     0.505420000000     0.210840000000    -0.169656   
N81      N      0.507790000000     0.774940000000     0.470720000000    -0.170888   
N82      N      0.994290000000     0.749270000000     0.554160000000    -0.172528   
N83      N      0.345740000000     0.606960000000     0.328430000000    -0.170348   
N84      N      0.406750000000     0.670820000000     0.359320000000    -0.170389   
N85      N      0.158800000000     0.921350000000     0.347350000000    -0.169886   
N86      N      0.092700000000     0.855950000000     0.331020000000    -0.169845   
N87      N      0.511590000000     0.760180000000     0.138720000000    -0.171113   
N88      N      0.489570000000     0.751980000000     0.223380000000    -0.171135   
N89      N      0.492040000000     0.001940000000     0.532720000000    -0.169749   
N90      N      0.499420000000     0.019820000000     0.446180000000    -0.170782   
N91      N      0.398860000000     0.914060000000     0.325770000000    -0.171018   
N92      N      0.332890000000     0.848120000000     0.338840000000    -0.171025   
N93      N      0.147230000000     0.661950000000     0.338570000000    -0.171073   
N94      N      0.084710000000     0.598840000000     0.310210000000    -0.170959   
N95      N      0.003220000000     0.496950000000     0.114420000000    -0.172863   
N96      N      0.982870000000     0.493610000000     0.199240000000    -0.170004   
N97      N      0.749160000000     0.333860000000     0.680080000000    -0.170391   
N98      N      0.748130000000     0.397740000000     0.656910000000    -0.170281   
N99      N      0.748110000000     0.147720000000     0.653890000000    -0.17084    
N100     N      0.749320000000     0.084370000000     0.678290000000    -0.17059    
N101     N      0.995040000000     0.342630000000     0.680380000000    -0.171972   
N102     N      0.993990000000     0.403880000000     0.647480000000    -0.171956   
N103     N      0.993770000000     0.088790000000     0.675470000000    -0.171557   
N104     N      0.994340000000     0.155940000000     0.669650000000    -0.171403   
N105     N      0.758180000000     0.235840000000     0.790410000000    -0.171001   
N106     N      0.751590000000     0.248970000000     0.875960000000    -0.170785   
N107     N      0.760970000000     0.978270000000     0.877480000000    -0.170866   
N108     N      0.751400000000     0.986970000000     0.791170000000    -0.170581   
N109     N      0.914450000000     0.253360000000     0.016890000000    -0.17105    
N110     N      0.850120000000     0.252940000000     0.993530000000    -0.171052   
N111     N      0.664370000000     0.253250000000     0.998190000000    -0.170798   
N112     N      0.600490000000     0.253640000000     0.021100000000    -0.17117    
N113     N      0.495810000000     0.251180000000     0.803150000000    -0.170099   
N114     N      0.006590000000     0.245760000000     0.890230000000    -0.168502   
N115     N      0.907140000000     0.985750000000     0.984420000000    -0.170219   
N116     N      0.844910000000     0.986890000000     0.014630000000    -0.17016    
N117     N      0.593890000000     0.986380000000     0.998540000000    -0.168763   
N118     N      0.658750000000     0.984770000000     0.982220000000    -0.170464   
N119     N      0.004510000000     0.978120000000     0.866200000000    -0.169761   
N120     N      0.994620000000     0.989570000000     0.781100000000    -0.172361   
N121     N      0.745270000000     0.262010000000     0.458210000000    -0.171214   
N122     N      0.739600000000     0.241810000000     0.543410000000    -0.17091    
N123     N      0.761580000000     0.258590000000     0.124820000000    -0.1702     
N124     N      0.738300000000     0.250190000000     0.209590000000    -0.17029    
N125     N      0.757560000000     0.024660000000     0.459680000000    -0.170983   
N126     N      0.747190000000     0.998070000000     0.542730000000    -0.170443   
N127     N      0.740270000000     0.992440000000     0.123420000000    -0.170211   
N128     N      0.750290000000     0.004750000000     0.211580000000    -0.169761   
N129     N      0.007860000000     0.274970000000     0.470560000000    -0.169225   
N130     N      0.494430000000     0.249450000000     0.554070000000    -0.170869   
N131     N      0.845210000000     0.107340000000     0.328190000000    -0.170288   
N132     N      0.906340000000     0.171020000000     0.359210000000    -0.170455   
N133     N      0.659220000000     0.420920000000     0.346000000000    -0.169892   
N134     N      0.592820000000     0.355550000000     0.330460000000    -0.169999   
N135     N      0.011420000000     0.259970000000     0.138680000000    -0.172309   
N136     N      0.989230000000     0.251780000000     0.223270000000    -0.170034   
N137     N      0.992660000000     0.502040000000     0.534070000000    -0.171168   
N138     N      0.998770000000     0.517170000000     0.446620000000    -0.171869   
N139     N      0.898990000000     0.413430000000     0.325270000000    -0.171225   
N140     N      0.833080000000     0.347670000000     0.339130000000    -0.171083   
N141     N      0.646950000000     0.161980000000     0.338860000000    -0.171198   
N142     N      0.584640000000     0.099280000000     0.309450000000    -0.171302   
N143     N      0.500720000000     0.995290000000     0.113520000000    -0.171322   
N144     N      0.483070000000     0.993470000000     0.199200000000    -0.171409   
N145     N      0.749330000000     0.834160000000     0.679450000000    -0.170368   
N146     N      0.748460000000     0.898030000000     0.655950000000    -0.170382   
N147     N      0.747790000000     0.647810000000     0.652860000000    -0.17076    
N148     N      0.748890000000     0.584200000000     0.676390000000    -0.17065    
N149     N      0.994680000000     0.842670000000     0.679720000000    -0.171934   
N150     N      0.993460000000     0.903460000000     0.645700000000    -0.172145   
N151     N      0.994060000000     0.589180000000     0.676370000000    -0.171574   
N152     N      0.994470000000     0.656210000000     0.670190000000    -0.171424   
N153     N      0.758110000000     0.735960000000     0.789850000000    -0.171041   
N154     N      0.751670000000     0.749100000000     0.875460000000    -0.170804   
N155     N      0.762220000000     0.479350000000     0.876680000000    -0.170494   
N156     N      0.751360000000     0.488360000000     0.790800000000    -0.17029    
N157     N      0.914530000000     0.753620000000     0.016890000000    -0.170981   
N158     N      0.850240000000     0.753160000000     0.993230000000    -0.170998   
N159     N      0.664450000000     0.753470000000     0.997770000000    -0.17068    
N160     N      0.600610000000     0.753900000000     0.020870000000    -0.171166   
N161     N      0.495700000000     0.751610000000     0.803220000000    -0.170145   
N162     N      0.006610000000     0.746120000000     0.890250000000    -0.168581   
N163     N      0.908630000000     0.486730000000     0.985340000000    -0.17002    
N164     N      0.846060000000     0.487770000000     0.014720000000    -0.169683   
N165     N      0.595520000000     0.487480000000     0.999610000000    -0.168599   
N166     N      0.659900000000     0.485600000000     0.981020000000    -0.170285   
N167     N      0.005780000000     0.478590000000     0.867110000000    -0.169445   
N168     N      0.994790000000     0.490720000000     0.782650000000    -0.172267   
N169     N      0.745260000000     0.762300000000     0.457690000000    -0.171229   
N170     N      0.739550000000     0.742050000000     0.542870000000    -0.170981   
N171     N      0.761690000000     0.758850000000     0.124310000000    -0.170141   
N172     N      0.738410000000     0.750400000000     0.209080000000    -0.170303   
N173     N      0.757260000000     0.523280000000     0.459280000000    -0.170832   
N174     N      0.746050000000     0.495590000000     0.541940000000    -0.170297   
N175     N      0.740690000000     0.492750000000     0.122760000000    -0.169906   
N176     N      0.752050000000     0.505420000000     0.210840000000    -0.169671   
N177     N      0.007790000000     0.774940000000     0.470720000000    -0.169295   
N178     N      0.494290000000     0.749270000000     0.554160000000    -0.171006   
N179     N      0.845740000000     0.606960000000     0.328430000000    -0.170358   
N180     N      0.906750000000     0.670820000000     0.359320000000    -0.17055    
N181     N      0.658800000000     0.921350000000     0.347350000000    -0.169917   
N182     N      0.592710000000     0.855950000000     0.331020000000    -0.169986   
N183     N      0.011590000000     0.760180000000     0.138720000000    -0.172225   
N184     N      0.989570000000     0.751980000000     0.223380000000    -0.170011   
N185     N      0.992040000000     0.001940000000     0.532720000000    -0.171037   
N186     N      0.999430000000     0.019820000000     0.446180000000    -0.172137   
N187     N      0.898860000000     0.914060000000     0.325770000000    -0.171151   
N188     N      0.832880000000     0.848120000000     0.338840000000    -0.171034   
N189     N      0.647230000000     0.661950000000     0.338570000000    -0.171097   
N190     N      0.584710000000     0.598840000000     0.310210000000    -0.171218   
N191     N      0.503220000000     0.496950000000     0.114420000000    -0.171147   
N192     N      0.482870000000     0.493610000000     0.199240000000    -0.171339   
Ni1      Ni     0.475450000000     0.023400000000     0.320700000000     1.00108    
Ni2      Ni     0.008090000000     0.490020000000     0.323980000000     1.0125     
Ni3      Ni     0.015540000000     0.247170000000     0.347660000000     1.00616    
Ni4      Ni     0.483350000000     0.280260000000     0.345900000000     0.998543   
Ni5      Ni     0.269120000000     0.497260000000     0.337370000000     0.999232   
Ni6      Ni     0.235830000000     0.030150000000     0.333650000000     0.991151   
Ni7      Ni     0.223870000000     0.271210000000     0.333410000000     0.996713   
Ni8      Ni     0.256460000000     0.238490000000     0.334990000000     1.00589    
Ni9      Ni     0.485990000000     0.454750000000     0.993790000000     0.996571   
Ni10     Ni     0.017030000000     0.018820000000     0.986820000000     1.01181    
Ni11     Ni     0.023560000000     0.285620000000     0.012180000000     1.01191    
Ni12     Ni     0.491110000000     0.220410000000     0.017010000000     0.999336   
Ni13     Ni     0.236420000000     0.453970000000     0.002200000000     0.992567   
Ni14     Ni     0.267840000000     0.018320000000     0.997950000000     0.997367   
Ni15     Ni     0.273840000000     0.286160000000     0.998470000000     1.00343    
Ni16     Ni     0.241090000000     0.220890000000     0.001920000000     0.99774    
Ni17     Ni     0.025920000000     0.012640000000     0.656600000000     1.00726    
Ni18     Ni     0.461070000000     0.480300000000     0.658860000000     0.992839   
Ni19     Ni     0.027500000000     0.265430000000     0.678240000000     1.00196    
Ni20     Ni     0.462230000000     0.233040000000     0.678830000000     0.995225   
Ni21     Ni     0.215820000000     0.474700000000     0.667340000000     0.992714   
Ni22     Ni     0.281510000000     0.007540000000     0.666100000000     1.00469    
Ni23     Ni     0.216040000000     0.224310000000     0.670270000000     0.9941     
Ni24     Ni     0.281100000000     0.257100000000     0.663970000000     1.00563    
Ni25     Ni     0.475570000000     0.522780000000     0.321210000000     1.00032    
Ni26     Ni     0.007950000000     0.990650000000     0.324240000000     1.01237    
Ni27     Ni     0.015820000000     0.747380000000     0.347820000000     1.00669    
Ni28     Ni     0.483340000000     0.780190000000     0.346040000000     0.998859   
Ni29     Ni     0.268600000000     0.997730000000     0.337970000000     0.999961   
Ni30     Ni     0.236390000000     0.529720000000     0.333060000000     0.989883   
Ni31     Ni     0.223790000000     0.771300000000     0.332870000000     0.996167   
Ni32     Ni     0.256630000000     0.738840000000     0.334510000000     1.00576    
Ni33     Ni     0.484390000000     0.953680000000     0.992700000000     0.997429   
Ni34     Ni     0.018590000000     0.519860000000     0.987530000000     1.01015    
Ni35     Ni     0.023670000000     0.785900000000     0.012230000000     1.01171    
Ni36     Ni     0.491220000000     0.720690000000     0.017000000000     0.998959   
Ni37     Ni     0.235290000000     0.953150000000     0.003000000000     0.993358   
Ni38     Ni     0.268950000000     0.519150000000     0.997380000000     0.994318   
Ni39     Ni     0.273920000000     0.786360000000     0.997950000000     1.00319    
Ni40     Ni     0.241180000000     0.721090000000     0.001440000000     0.997169   
Ni41     Ni     0.026350000000     0.513080000000     0.658100000000     1.00522    
Ni42     Ni     0.460630000000     0.979920000000     0.657490000000     0.991927   
Ni43     Ni     0.027380000000     0.765650000000     0.678310000000     1.00204    
Ni44     Ni     0.462110000000     0.733140000000     0.678910000000     0.995675   
Ni45     Ni     0.216240000000     0.974970000000     0.667700000000     0.99204    
Ni46     Ni     0.281070000000     0.507310000000     0.665380000000     1.00175    
Ni47     Ni     0.215970000000     0.724550000000     0.669710000000     0.994181   
Ni48     Ni     0.281040000000     0.757220000000     0.663410000000     1.00566    
Ni49     Ni     0.975450000000     0.023400000000     0.320700000000     0.991328   
Ni50     Ni     0.508090000000     0.490020000000     0.323980000000     1.00403    
Ni51     Ni     0.515540000000     0.247170000000     0.347660000000     0.997124   
Ni52     Ni     0.983360000000     0.280260000000     0.345900000000     0.989472   
Ni53     Ni     0.769120000000     0.497260000000     0.337370000000     0.99925    
Ni54     Ni     0.735830000000     0.030150000000     0.333650000000     0.991187   
Ni55     Ni     0.723870000000     0.271210000000     0.333410000000     0.996695   
Ni56     Ni     0.756460000000     0.238490000000     0.334990000000     1.00591    
Ni57     Ni     0.985990000000     0.454750000000     0.993790000000     0.988305   
Ni58     Ni     0.517030000000     0.018820000000     0.986820000000     1.00194    
Ni59     Ni     0.523560000000     0.285620000000     0.012180000000     1.00202    
Ni60     Ni     0.991100000000     0.220410000000     0.017010000000     0.990983   
Ni61     Ni     0.736420000000     0.453970000000     0.002200000000     0.992803   
Ni62     Ni     0.767840000000     0.018320000000     0.997950000000     0.997334   
Ni63     Ni     0.773840000000     0.286160000000     0.998470000000     1.00343    
Ni64     Ni     0.741090000000     0.220890000000     0.001920000000     0.997752   
Ni65     Ni     0.525920000000     0.012640000000     0.656600000000     1.00484    
Ni66     Ni     0.961070000000     0.480300000000     0.658860000000     0.987576   
Ni67     Ni     0.527500000000     0.265430000000     0.678240000000     0.999465   
Ni68     Ni     0.962230000000     0.233040000000     0.678830000000     0.990147   
Ni69     Ni     0.715820000000     0.474700000000     0.667340000000     0.992667   
Ni70     Ni     0.781510000000     0.007540000000     0.666100000000     1.00476    
Ni71     Ni     0.716040000000     0.224310000000     0.670270000000     0.994023   
Ni72     Ni     0.781100000000     0.257100000000     0.663970000000     1.00559    
Ni73     Ni     0.975570000000     0.522780000000     0.321210000000     0.990525   
Ni74     Ni     0.507950000000     0.990650000000     0.324240000000     1.00378    
Ni75     Ni     0.515820000000     0.747380000000     0.347820000000     0.997482   
Ni76     Ni     0.983340000000     0.780190000000     0.346040000000     0.989848   
Ni77     Ni     0.768600000000     0.997730000000     0.337970000000     1.00002    
Ni78     Ni     0.736390000000     0.529720000000     0.333060000000     0.989869   
Ni79     Ni     0.723790000000     0.771300000000     0.332870000000     0.996186   
Ni80     Ni     0.756630000000     0.738840000000     0.334510000000     1.00575    
Ni81     Ni     0.984390000000     0.953680000000     0.992700000000     0.98924    
Ni82     Ni     0.518590000000     0.519860000000     0.987530000000     1.00022    
Ni83     Ni     0.523670000000     0.785900000000     0.012230000000     1.00184    
Ni84     Ni     0.991220000000     0.720690000000     0.017000000000     0.990623   
Ni85     Ni     0.735290000000     0.953150000000     0.003000000000     0.993407   
Ni86     Ni     0.768950000000     0.519150000000     0.997380000000     0.994241   
Ni87     Ni     0.773920000000     0.786360000000     0.997950000000     1.00319    
Ni88     Ni     0.741180000000     0.721090000000     0.001440000000     0.997182   
Ni89     Ni     0.526350000000     0.513080000000     0.658100000000     1.00268    
Ni90     Ni     0.960630000000     0.979920000000     0.657490000000     0.986792   
Ni91     Ni     0.527380000000     0.765650000000     0.678310000000     0.999552   
Ni92     Ni     0.962110000000     0.733140000000     0.678910000000     0.990461   
Ni93     Ni     0.716240000000     0.974970000000     0.667700000000     0.991957   
Ni94     Ni     0.781070000000     0.507310000000     0.665380000000     1.00176    
Ni95     Ni     0.715970000000     0.724550000000     0.669710000000     0.994121   
Ni96     Ni     0.781040000000     0.757220000000     0.663410000000     1.00568    
O1       O      0.475520000000     0.018780000000     0.260080000000    -0.450616   
O2       O      0.477460000000     0.025720000000     0.381700000000    -0.449716   
O3       O      0.022050000000     0.067570000000     0.317230000000    -0.448736   
O4       O      0.431250000000     0.476360000000     0.323770000000    -0.453043   
O5       O      0.461740000000     0.446090000000     0.330680000000    -0.452778   
O6       O      0.052100000000     0.036590000000     0.316120000000    -0.453553   
O7       O      0.012140000000     0.498210000000     0.384240000000    -0.447064   
O8       O      0.001670000000     0.483890000000     0.263730000000    -0.448132   
O9       O      0.469270000000     0.203490000000     0.356580000000    -0.450734   
O10      O      0.059800000000     0.292910000000     0.338410000000    -0.451182   
O11      O      0.021050000000     0.256130000000     0.407850000000    -0.450118   
O12      O      0.007630000000     0.240470000000     0.287400000000    -0.445387   
O13      O      0.481720000000     0.275420000000     0.285420000000    -0.453045   
O14      O      0.486910000000     0.282930000000     0.406580000000    -0.451964   
O15      O      0.030270000000     0.324370000000     0.340880000000    -0.44419    
O16      O      0.438740000000     0.233790000000     0.350680000000    -0.448278   
O17      O      0.312910000000     0.044210000000     0.331430000000    -0.448507   
O18      O      0.222380000000     0.453020000000     0.343380000000    -0.447613   
O19      O      0.264760000000     0.491840000000     0.276920000000    -0.451195   
O20      O      0.271700000000     0.504890000000     0.397470000000    -0.452255   
O21      O      0.236780000000     0.031850000000     0.394870000000    -0.446112   
O22      O      0.237350000000     0.026200000000     0.272690000000    -0.445384   
O23      O      0.191970000000     0.483240000000     0.335300000000    -0.449838   
O24      O      0.282300000000     0.074630000000     0.331480000000    -0.45019    
O25      O      0.179520000000     0.224720000000     0.332870000000    -0.452597   
O26      O      0.270330000000     0.315480000000     0.334790000000    -0.453088   
O27      O      0.226660000000     0.270470000000     0.272320000000    -0.447131   
O28      O      0.223560000000     0.269870000000     0.394520000000    -0.448091   
O29      O      0.258290000000     0.243690000000     0.395420000000    -0.453599   
O30      O      0.252670000000     0.235610000000     0.274230000000    -0.451197   
O31      O      0.300810000000     0.284970000000     0.331870000000    -0.452618   
O32      O      0.209910000000     0.194270000000     0.338770000000    -0.452688   
O33      O      0.032590000000     0.456920000000     0.995230000000    -0.445622   
O34      O      0.441480000000     0.456800000000     0.992210000000    -0.449092   
O35      O      0.485630000000     0.452480000000     0.932760000000    -0.448563   
O36      O      0.488860000000     0.461570000000     0.054290000000    -0.450669   
O37      O      0.013410000000     0.020940000000     0.047190000000    -0.455502   
O38      O      0.018850000000     0.012500000000     0.926840000000    -0.454242   
O39      O      0.470260000000     0.016250000000     0.981540000000    -0.447809   
O40      O      0.061460000000     0.016890000000     0.992820000000    -0.449564   
O41      O      0.067930000000     0.283770000000     0.015710000000    -0.454913   
O42      O      0.477040000000     0.283280000000     0.009720000000    -0.453135   
O43      O      0.021570000000     0.286810000000     0.073010000000    -0.452104   
O44      O      0.023530000000     0.279910000000     0.951570000000    -0.449842   
O45      O      0.489040000000     0.219090000000     0.956030000000    -0.448912   
O46      O      0.495560000000     0.226000000000     0.077500000000    -0.451446   
O47      O      0.446760000000     0.222670000000     0.018450000000    -0.451634   
O48      O      0.037690000000     0.222700000000     0.015890000000    -0.44891    
O49      O      0.283140000000     0.456610000000     0.008450000000    -0.447497   
O50      O      0.191990000000     0.455780000000     0.995330000000    -0.447255   
O51      O      0.240230000000     0.452690000000     0.941590000000    -0.449221   
O52      O      0.234540000000     0.459470000000     0.062520000000    -0.449267   
O53      O      0.259890000000     0.019600000000     0.058000000000    -0.447892   
O54      O      0.273410000000     0.012540000000     0.938320000000    -0.448637   
O55      O      0.221630000000     0.015540000000     0.987450000000    -0.449439   
O56      O      0.312000000000     0.016830000000     0.008460000000    -0.449444   
O57      O      0.227300000000     0.283970000000     0.997490000000    -0.451158   
O58      O      0.318150000000     0.283820000000     0.999000000000    -0.451603   
O59      O      0.272500000000     0.281610000000     0.937830000000    -0.45127    
O60      O      0.272850000000     0.286420000000     0.059500000000    -0.450553   
O61      O      0.246480000000     0.225550000000     0.062670000000    -0.448531   
O62      O      0.237760000000     0.220740000000     0.941090000000    -0.449385   
O63      O      0.287340000000     0.222760000000     0.998000000000    -0.452085   
O64      O      0.196970000000     0.223240000000     0.004930000000    -0.452975   
O65      O      0.024290000000     0.009320000000     0.717320000000    -0.448446   
O66      O      0.023120000000     0.013650000000     0.595840000000    -0.447309   
O67      O      0.023800000000     0.056990000000     0.661220000000    -0.447321   
O68      O      0.024300000000     0.466620000000     0.654330000000    -0.447774   
O69      O      0.463340000000     0.436220000000     0.651190000000    -0.449552   
O70      O      0.462920000000     0.026220000000     0.665910000000    -0.448931   
O71      O      0.462760000000     0.487260000000     0.598300000000    -0.447543   
O72      O      0.463700000000     0.475490000000     0.719280000000    -0.448552   
O73      O      0.025040000000     0.218600000000     0.678830000000    -0.445415   
O74      O      0.025450000000     0.310010000000     0.677150000000    -0.446248   
O75      O      0.025710000000     0.266070000000     0.739100000000    -0.446771   
O76      O      0.025040000000     0.262770000000     0.617500000000    -0.44776    
O77      O      0.464180000000     0.236990000000     0.617900000000    -0.448383   
O78      O      0.464830000000     0.231490000000     0.739820000000    -0.447101   
O79      O      0.464590000000     0.279640000000     0.682180000000    -0.450856   
O80      O      0.464120000000     0.188550000000     0.674950000000    -0.450428   
O81      O      0.218660000000     0.021390000000     0.674820000000    -0.450027   
O82      O      0.217790000000     0.430360000000     0.661040000000    -0.449595   
O83      O      0.219430000000     0.471480000000     0.727940000000    -0.447611   
O84      O      0.216650000000     0.480270000000     0.606550000000    -0.447      
O85      O      0.278230000000     0.007680000000     0.605450000000    -0.452228   
O86      O      0.280510000000     0.005460000000     0.726910000000    -0.45153    
O87      O      0.278770000000     0.460610000000     0.663260000000    -0.450414   
O88      O      0.279480000000     0.052000000000     0.669190000000    -0.451564   
O89      O      0.217860000000     0.180090000000     0.662030000000    -0.450473   
O90      O      0.218590000000     0.270800000000     0.677950000000    -0.449529   
O91      O      0.213680000000     0.229330000000     0.609830000000    -0.448664   
O92      O      0.222820000000     0.221240000000     0.730210000000    -0.449226   
O93      O      0.283510000000     0.255820000000     0.724610000000    -0.453159   
O94      O      0.274380000000     0.255940000000     0.603760000000    -0.453598   
O95      O      0.279020000000     0.301520000000     0.668200000000    -0.451191   
O96      O      0.278850000000     0.210530000000     0.660230000000    -0.451884   
O97      O      0.475660000000     0.518730000000     0.260490000000    -0.450514   
O98      O      0.477520000000     0.524470000000     0.382260000000    -0.449326   
O99      O      0.022140000000     0.567000000000     0.318110000000    -0.44877    
O100     O      0.431100000000     0.976990000000     0.323680000000    -0.453095   
O101     O      0.461600000000     0.946800000000     0.331330000000    -0.452928   
O102     O      0.052250000000     0.536080000000     0.316320000000    -0.453355   
O103     O      0.012100000000     0.999490000000     0.384370000000    -0.447652   
O104     O      0.001520000000     0.983960000000     0.264040000000    -0.448012   
O105     O      0.469670000000     0.703550000000     0.356660000000    -0.450947   
O106     O      0.059930000000     0.793270000000     0.338670000000    -0.451301   
O107     O      0.021200000000     0.756290000000     0.408010000000    -0.45036    
O108     O      0.008000000000     0.740730000000     0.287540000000    -0.445389   
O109     O      0.481810000000     0.775430000000     0.285550000000    -0.452817   
O110     O      0.486800000000     0.782800000000     0.406720000000    -0.452121   
O111     O      0.030120000000     0.824460000000     0.341130000000    -0.444318   
O112     O      0.438880000000     0.733570000000     0.350730000000    -0.448579   
O113     O      0.313480000000     0.543800000000     0.331340000000    -0.448353   
O114     O      0.221940000000     0.953540000000     0.344490000000    -0.447894   
O115     O      0.263820000000     0.991900000000     0.277610000000    -0.452325   
O116     O      0.271550000000     0.005770000000     0.397970000000    -0.452673   
O117     O      0.236960000000     0.530990000000     0.394350000000    -0.445385   
O118     O      0.238350000000     0.526210000000     0.272030000000    -0.444431   
O119     O      0.191420000000     0.983660000000     0.336410000000    -0.449792   
O120     O      0.282850000000     0.574190000000     0.331420000000    -0.450402   
O121     O      0.179560000000     0.724690000000     0.332370000000    -0.452342   
O122     O      0.270150000000     0.815720000000     0.334240000000    -0.452631   
O123     O      0.226590000000     0.770550000000     0.271790000000    -0.447072   
O124     O      0.223480000000     0.770010000000     0.393980000000    -0.447927   
O125     O      0.258400000000     0.744030000000     0.394940000000    -0.453555   
O126     O      0.252870000000     0.735940000000     0.273740000000    -0.451178   
O127     O      0.300850000000     0.785420000000     0.331430000000    -0.452489   
O128     O      0.210190000000     0.694480000000     0.338270000000    -0.452549   
O129     O      0.030970000000     0.955840000000     0.994230000000    -0.446119   
O130     O      0.439920000000     0.955750000000     0.991050000000    -0.449632   
O131     O      0.484240000000     0.951700000000     0.931680000000    -0.449101   
O132     O      0.487010000000     0.960210000000     0.053230000000    -0.450937   
O133     O      0.015220000000     0.522280000000     0.047920000000    -0.455054   
O134     O      0.020210000000     0.513270000000     0.927560000000    -0.454072   
O135     O      0.471770000000     0.517260000000     0.982360000000    -0.447423   
O136     O      0.063060000000     0.517960000000     0.993470000000    -0.449092   
O137     O      0.068050000000     0.784040000000     0.015680000000    -0.454723   
O138     O      0.477140000000     0.783550000000     0.009810000000    -0.453145   
O139     O      0.021710000000     0.787050000000     0.073060000000    -0.452118   
O140     O      0.023610000000     0.780220000000     0.951610000000    -0.44998    
O141     O      0.489120000000     0.719410000000     0.956030000000    -0.449056   
O142     O      0.495710000000     0.726240000000     0.077510000000    -0.451221   
O143     O      0.446860000000     0.722950000000     0.018510000000    -0.451602   
O144     O      0.037800000000     0.722970000000     0.015810000000    -0.448789   
O145     O      0.281980000000     0.955780000000     0.009040000000    -0.44831    
O146     O      0.190880000000     0.954970000000     0.996300000000    -0.447891   
O147     O      0.238900000000     0.951700000000     0.942390000000    -0.449511   
O148     O      0.233640000000     0.958850000000     0.063300000000    -0.44962    
O149     O      0.260750000000     0.520230000000     0.057480000000    -0.446822   
O150     O      0.274710000000     0.513530000000     0.937690000000    -0.447614   
O151     O      0.222750000000     0.516370000000     0.986690000000    -0.449162   
O152     O      0.313110000000     0.517660000000     0.008070000000    -0.449057   
O153     O      0.227390000000     0.784170000000     0.996940000000    -0.451178   
O154     O      0.318250000000     0.784030000000     0.998530000000    -0.451402   
O155     O      0.272590000000     0.781780000000     0.937300000000    -0.451084   
O156     O      0.272930000000     0.786660000000     0.058980000000    -0.450368   
O157     O      0.246580000000     0.725780000000     0.062190000000    -0.448408   
O158     O      0.237850000000     0.720910000000     0.940610000000    -0.449251   
O159     O      0.287450000000     0.722970000000     0.997540000000    -0.451895   
O160     O      0.197050000000     0.723450000000     0.004450000000    -0.452895   
O161     O      0.024610000000     0.509950000000     0.718860000000    -0.448222   
O162     O      0.023670000000     0.513920000000     0.597290000000    -0.446451   
O163     O      0.024180000000     0.557410000000     0.662420000000    -0.447      
O164     O      0.023810000000     0.966190000000     0.652550000000    -0.448565   
O165     O      0.462850000000     0.935820000000     0.649550000000    -0.449267   
O166     O      0.463290000000     0.526590000000     0.667000000000    -0.449219   
O167     O      0.462220000000     0.987020000000     0.596980000000    -0.4481     
O168     O      0.463370000000     0.974920000000     0.717850000000    -0.448715   
O169     O      0.025040000000     0.718880000000     0.679160000000    -0.44554    
O170     O      0.025210000000     0.810150000000     0.676950000000    -0.446202   
O171     O      0.025590000000     0.766470000000     0.739170000000    -0.446749   
O172     O      0.024910000000     0.762800000000     0.617580000000    -0.447928   
O173     O      0.464050000000     0.736900000000     0.617970000000    -0.448737   
O174     O      0.464720000000     0.731770000000     0.739910000000    -0.447238   
O175     O      0.464350000000     0.779690000000     0.682000000000    -0.450944   
O176     O      0.464120000000     0.688710000000     0.675260000000    -0.450602   
O177     O      0.218220000000     0.521190000000     0.673640000000    -0.450149   
O178     O      0.218190000000     0.930680000000     0.660590000000    -0.449537   
O179     O      0.219610000000     0.970990000000     0.728210000000    -0.447961   
O180     O      0.217360000000     0.981320000000     0.607030000000    -0.447355   
O181     O      0.277510000000     0.506610000000     0.604650000000    -0.451207   
O182     O      0.280320000000     0.506040000000     0.726300000000    -0.450454   
O183     O      0.279160000000     0.960840000000     0.663080000000    -0.450864   
O184     O      0.279010000000     0.551770000000     0.667620000000    -0.451344   
O185     O      0.217660000000     0.680270000000     0.661410000000    -0.450422   
O186     O      0.218650000000     0.771090000000     0.677420000000    -0.449679   
O187     O      0.213620000000     0.729600000000     0.609280000000    -0.448688   
O188     O      0.222750000000     0.721430000000     0.729660000000    -0.44916    
O189     O      0.283450000000     0.755880000000     0.724050000000    -0.453165   
O190     O      0.274320000000     0.756130000000     0.603210000000    -0.453619   
O191     O      0.279090000000     0.801700000000     0.667700000000    -0.451098   
O192     O      0.278660000000     0.710590000000     0.659560000000    -0.451764   
O193     O      0.975520000000     0.018780000000     0.260080000000    -0.449147   
O194     O      0.977460000000     0.025720000000     0.381700000000    -0.448317   
O195     O      0.522050000000     0.067570000000     0.317230000000    -0.452564   
O196     O      0.931250000000     0.476360000000     0.323770000000    -0.452108   
O197     O      0.961740000000     0.446090000000     0.330680000000    -0.456107   
O198     O      0.552100000000     0.036590000000     0.316120000000    -0.453007   
O199     O      0.512140000000     0.498210000000     0.384240000000    -0.450562   
O200     O      0.501670000000     0.483890000000     0.263730000000    -0.452418   
O201     O      0.969270000000     0.203490000000     0.356580000000    -0.454139   
O202     O      0.559800000000     0.292910000000     0.338410000000    -0.450515   
O203     O      0.521050000000     0.256130000000     0.407850000000    -0.448897   
O204     O      0.507630000000     0.240470000000     0.287400000000    -0.449494   
O205     O      0.981720000000     0.275420000000     0.285420000000    -0.45167    
O206     O      0.986910000000     0.282930000000     0.406580000000    -0.455252   
O207     O      0.530270000000     0.324370000000     0.340880000000    -0.447724   
O208     O      0.938740000000     0.233790000000     0.350680000000    -0.447494   
O209     O      0.812910000000     0.044210000000     0.331430000000    -0.44852    
O210     O      0.722380000000     0.453020000000     0.343380000000    -0.447611   
O211     O      0.764760000000     0.491840000000     0.276920000000    -0.451207   
O212     O      0.771700000000     0.504890000000     0.397470000000    -0.452261   
O213     O      0.736790000000     0.031850000000     0.394870000000    -0.446279   
O214     O      0.737350000000     0.026200000000     0.272690000000    -0.445415   
O215     O      0.691970000000     0.483240000000     0.335300000000    -0.449874   
O216     O      0.782300000000     0.074630000000     0.331480000000    -0.450177   
O217     O      0.679520000000     0.224720000000     0.332870000000    -0.452646   
O218     O      0.770330000000     0.315480000000     0.334790000000    -0.453081   
O219     O      0.726660000000     0.270470000000     0.272320000000    -0.447153   
O220     O      0.723560000000     0.269870000000     0.394520000000    -0.448105   
O221     O      0.758290000000     0.243690000000     0.395420000000    -0.453605   
O222     O      0.752670000000     0.235610000000     0.274230000000    -0.451206   
O223     O      0.800810000000     0.284970000000     0.331870000000    -0.452634   
O224     O      0.709910000000     0.194270000000     0.338770000000    -0.452693   
O225     O      0.532590000000     0.456920000000     0.995230000000    -0.449075   
O226     O      0.941480000000     0.456800000000     0.992210000000    -0.448556   
O227     O      0.985630000000     0.452480000000     0.932760000000    -0.452042   
O228     O      0.988860000000     0.461570000000     0.054290000000    -0.454472   
O229     O      0.513410000000     0.020940000000     0.047190000000    -0.453954   
O230     O      0.518850000000     0.012500000000     0.926840000000    -0.452823   
O231     O      0.970260000000     0.016250000000     0.981540000000    -0.451543   
O232     O      0.561460000000     0.016890000000     0.992820000000    -0.448657   
O233     O      0.567930000000     0.283770000000     0.015710000000    -0.453983   
O234     O      0.977040000000     0.283280000000     0.009720000000    -0.45692    
O235     O      0.521570000000     0.286810000000     0.073010000000    -0.450665   
O236     O      0.523530000000     0.279910000000     0.951570000000    -0.448464   
O237     O      0.989040000000     0.219090000000     0.956030000000    -0.452372   
O238     O      0.995560000000     0.226000000000     0.077500000000    -0.455626   
O239     O      0.946760000000     0.222670000000     0.018450000000    -0.451247   
O240     O      0.537690000000     0.222700000000     0.015890000000    -0.452387   
O241     O      0.783130000000     0.456610000000     0.008450000000    -0.447559   
O242     O      0.691990000000     0.455780000000     0.995330000000    -0.447313   
O243     O      0.740230000000     0.452690000000     0.941590000000    -0.449254   
O244     O      0.734540000000     0.459470000000     0.062520000000    -0.449303   
O245     O      0.759890000000     0.019600000000     0.058000000000    -0.447906   
O246     O      0.773410000000     0.012540000000     0.938320000000    -0.448649   
O247     O      0.721630000000     0.015540000000     0.987450000000    -0.449347   
O248     O      0.812000000000     0.016830000000     0.008460000000    -0.449514   
O249     O      0.727300000000     0.283970000000     0.997490000000    -0.451159   
O250     O      0.818150000000     0.283820000000     0.999000000000    -0.451628   
O251     O      0.772500000000     0.281610000000     0.937830000000    -0.451277   
O252     O      0.772850000000     0.286420000000     0.059500000000    -0.450561   
O253     O      0.746480000000     0.225550000000     0.062670000000    -0.448547   
O254     O      0.737760000000     0.220740000000     0.941090000000    -0.449401   
O255     O      0.787340000000     0.222760000000     0.998000000000    -0.45209    
O256     O      0.696970000000     0.223240000000     0.004930000000    -0.453011   
O257     O      0.524290000000     0.009320000000     0.717320000000    -0.452211   
O258     O      0.523120000000     0.013650000000     0.595840000000    -0.451132   
O259     O      0.523800000000     0.056990000000     0.661220000000    -0.451131   
O260     O      0.524300000000     0.466620000000     0.654330000000    -0.451577   
O261     O      0.963340000000     0.436220000000     0.651190000000    -0.448167   
O262     O      0.962920000000     0.026220000000     0.665910000000    -0.447576   
O263     O      0.962760000000     0.487260000000     0.598300000000    -0.446171   
O264     O      0.963700000000     0.475490000000     0.719280000000    -0.447172   
O265     O      0.525040000000     0.218600000000     0.678830000000    -0.449224   
O266     O      0.525450000000     0.310010000000     0.677150000000    -0.450022   
O267     O      0.525710000000     0.266070000000     0.739100000000    -0.450587   
O268     O      0.525040000000     0.262770000000     0.617500000000    -0.45156    
O269     O      0.964180000000     0.236990000000     0.617900000000    -0.447034   
O270     O      0.964830000000     0.231490000000     0.739820000000    -0.445777   
O271     O      0.964600000000     0.279640000000     0.682180000000    -0.449649   
O272     O      0.964120000000     0.188550000000     0.674950000000    -0.449073   
O273     O      0.718660000000     0.021390000000     0.674820000000    -0.449967   
O274     O      0.717790000000     0.430360000000     0.661040000000    -0.449608   
O275     O      0.719430000000     0.471480000000     0.727940000000    -0.447635   
O276     O      0.716650000000     0.480270000000     0.606550000000    -0.447028   
O277     O      0.778230000000     0.007680000000     0.605450000000    -0.452249   
O278     O      0.780510000000     0.005460000000     0.726910000000    -0.451551   
O279     O      0.778770000000     0.460610000000     0.663260000000    -0.450421   
O280     O      0.779490000000     0.052000000000     0.669190000000    -0.451457   
O281     O      0.717860000000     0.180090000000     0.662030000000    -0.450483   
O282     O      0.718590000000     0.270800000000     0.677950000000    -0.449547   
O283     O      0.713680000000     0.229330000000     0.609830000000    -0.44869    
O284     O      0.722820000000     0.221240000000     0.730210000000    -0.4492     
O285     O      0.783520000000     0.255820000000     0.724610000000    -0.453024   
O286     O      0.774380000000     0.255940000000     0.603760000000    -0.453599   
O287     O      0.779020000000     0.301520000000     0.668200000000    -0.451196   
O288     O      0.778850000000     0.210530000000     0.660230000000    -0.451873   
O289     O      0.975660000000     0.518730000000     0.260490000000    -0.449022   
O290     O      0.977520000000     0.524470000000     0.382260000000    -0.447913   
O291     O      0.522140000000     0.567000000000     0.318110000000    -0.452665   
O292     O      0.931100000000     0.976990000000     0.323680000000    -0.452161   
O293     O      0.961600000000     0.946800000000     0.331330000000    -0.456264   
O294     O      0.552240000000     0.536080000000     0.316320000000    -0.453002   
O295     O      0.512100000000     0.999490000000     0.384370000000    -0.451117   
O296     O      0.501520000000     0.983960000000     0.264040000000    -0.452247   
O297     O      0.969670000000     0.703550000000     0.356660000000    -0.454519   
O298     O      0.559930000000     0.793270000000     0.338670000000    -0.450597   
O299     O      0.521200000000     0.756290000000     0.408010000000    -0.449116   
O300     O      0.508000000000     0.740730000000     0.287540000000    -0.449471   
O301     O      0.981810000000     0.775430000000     0.285550000000    -0.451473   
O302     O      0.986800000000     0.782800000000     0.406720000000    -0.45543    
O303     O      0.530120000000     0.824460000000     0.341130000000    -0.447874   
O304     O      0.938880000000     0.733570000000     0.350730000000    -0.447843   
O305     O      0.813480000000     0.543800000000     0.331340000000    -0.44838    
O306     O      0.721940000000     0.953540000000     0.344490000000    -0.447898   
O307     O      0.763820000000     0.991900000000     0.277610000000    -0.45234    
O308     O      0.771550000000     0.005770000000     0.397970000000    -0.452737   
O309     O      0.736960000000     0.530990000000     0.394350000000    -0.445394   
O310     O      0.738350000000     0.526210000000     0.272030000000    -0.444454   
O311     O      0.691420000000     0.983660000000     0.336410000000    -0.449842   
O312     O      0.782850000000     0.574190000000     0.331420000000    -0.450399   
O313     O      0.679560000000     0.724690000000     0.332370000000    -0.452397   
O314     O      0.770150000000     0.815720000000     0.334240000000    -0.452768   
O315     O      0.726590000000     0.770550000000     0.271790000000    -0.447098   
O316     O      0.723480000000     0.770010000000     0.393980000000    -0.447944   
O317     O      0.758400000000     0.744030000000     0.394940000000    -0.45356    
O318     O      0.752870000000     0.735940000000     0.273740000000    -0.451184   
O319     O      0.800850000000     0.785420000000     0.331430000000    -0.452478   
O320     O      0.710190000000     0.694480000000     0.338270000000    -0.45255    
O321     O      0.530970000000     0.955840000000     0.994230000000    -0.449553   
O322     O      0.939920000000     0.955750000000     0.991050000000    -0.449102   
O323     O      0.984240000000     0.951700000000     0.931680000000    -0.452559   
O324     O      0.987010000000     0.960210000000     0.053230000000    -0.454717   
O325     O      0.515220000000     0.522280000000     0.047920000000    -0.453514   
O326     O      0.520210000000     0.513270000000     0.927560000000    -0.452661   
O327     O      0.971770000000     0.517260000000     0.982360000000    -0.451166   
O328     O      0.563060000000     0.517960000000     0.993470000000    -0.448196   
O329     O      0.568050000000     0.784040000000     0.015680000000    -0.453805   
O330     O      0.977140000000     0.783550000000     0.009810000000    -0.456906   
O331     O      0.521710000000     0.787050000000     0.073060000000    -0.45067    
O332     O      0.523610000000     0.780220000000     0.951610000000    -0.448598   
O333     O      0.989120000000     0.719410000000     0.956030000000    -0.452515   
O334     O      0.995700000000     0.726240000000     0.077510000000    -0.455423   
O335     O      0.946860000000     0.722950000000     0.018510000000    -0.451085   
O336     O      0.537800000000     0.722970000000     0.015810000000    -0.452169   
O337     O      0.781980000000     0.955780000000     0.009040000000    -0.448341   
O338     O      0.690880000000     0.954970000000     0.996300000000    -0.447833   
O339     O      0.738900000000     0.951700000000     0.942390000000    -0.44952    
O340     O      0.733640000000     0.958850000000     0.063300000000    -0.449638   
O341     O      0.760750000000     0.520230000000     0.057480000000    -0.446831   
O342     O      0.774710000000     0.513530000000     0.937690000000    -0.447623   
O343     O      0.722750000000     0.516370000000     0.986690000000    -0.449156   
O344     O      0.813110000000     0.517660000000     0.008070000000    -0.449062   
O345     O      0.727390000000     0.784170000000     0.996940000000    -0.451178   
O346     O      0.818250000000     0.784030000000     0.998530000000    -0.451427   
O347     O      0.772590000000     0.781780000000     0.937300000000    -0.45109    
O348     O      0.772930000000     0.786660000000     0.058980000000    -0.450377   
O349     O      0.746580000000     0.725780000000     0.062190000000    -0.448423   
O350     O      0.737850000000     0.720910000000     0.940610000000    -0.449267   
O351     O      0.787450000000     0.722970000000     0.997540000000    -0.4519     
O352     O      0.697050000000     0.723450000000     0.004450000000    -0.452932   
O353     O      0.524610000000     0.509950000000     0.718860000000    -0.452026   
O354     O      0.523670000000     0.513920000000     0.597290000000    -0.450291   
O355     O      0.524170000000     0.557410000000     0.662420000000    -0.450943   
O356     O      0.523810000000     0.966190000000     0.652550000000    -0.452349   
O357     O      0.962850000000     0.935820000000     0.649550000000    -0.447913   
O358     O      0.963290000000     0.526590000000     0.667000000000    -0.447773   
O359     O      0.962220000000     0.987020000000     0.596980000000    -0.446726   
O360     O      0.963370000000     0.974920000000     0.717850000000    -0.447355   
O361     O      0.525040000000     0.718880000000     0.679160000000    -0.449359   
O362     O      0.525210000000     0.810150000000     0.676950000000    -0.450135   
O363     O      0.525590000000     0.766470000000     0.739170000000    -0.450479   
O364     O      0.524910000000     0.762800000000     0.617580000000    -0.451727   
O365     O      0.964050000000     0.736900000000     0.617970000000    -0.447368   
O366     O      0.964720000000     0.731770000000     0.739910000000    -0.445813   
O367     O      0.964350000000     0.779690000000     0.682000000000    -0.4496     
O368     O      0.964120000000     0.688710000000     0.675260000000    -0.449225   
O369     O      0.718220000000     0.521190000000     0.673640000000    -0.450165   
O370     O      0.718190000000     0.930680000000     0.660590000000    -0.449547   
O371     O      0.719610000000     0.970990000000     0.728210000000    -0.447982   
O372     O      0.717360000000     0.981320000000     0.607030000000    -0.447379   
O373     O      0.777510000000     0.506610000000     0.604650000000    -0.451222   
O374     O      0.780320000000     0.506040000000     0.726300000000    -0.45047    
O375     O      0.779160000000     0.960840000000     0.663080000000    -0.450875   
O376     O      0.779010000000     0.551770000000     0.667620000000    -0.451352   
O377     O      0.717660000000     0.680270000000     0.661410000000    -0.450437   
O378     O      0.718650000000     0.771090000000     0.677420000000    -0.449697   
O379     O      0.713620000000     0.729600000000     0.609280000000    -0.44872    
O380     O      0.722750000000     0.721430000000     0.729660000000    -0.449183   
O381     O      0.783450000000     0.755880000000     0.724050000000    -0.453178   
O382     O      0.774320000000     0.756130000000     0.603210000000    -0.453631   
O383     O      0.779090000000     0.801700000000     0.667700000000    -0.451103   
O384     O      0.778660000000     0.710590000000     0.659560000000    -0.451767   


