data_structure

_audit_creation_method RASPA-1.0
_audit_creation_date 2023-5-22
_audit_author_name 'Poobodin Mano'

_cell_length_a    41.707
_cell_length_b    41.8684
_cell_length_c    42.1615
_cell_angle_alpha 90
_cell_angle_beta  90
_cell_angle_gamma 90
_cell_volume      73622.6

_symmetry_cell_setting          triclinic
_symmetry_space_group_name_Hall 'P 1'
_symmetry_space_group_name_H-M  'P 1'
_symmetry_Int_Tables_number     1

_symmetry_equiv_pos_as_xyz 'x,y,z'

loop_
_atom_site_label
_atom_site_type_symbol
_atom_site_fract_x
_atom_site_fract_y
_atom_site_fract_z
_atom_site_charge
C1       C      0.385350000000     0.929380000000     0.026050000000     0.426801   
C2       C      0.388810000000     0.808750000000     0.507630000000     0.427112   
C3       C      0.385480000000     0.859440000000     0.076450000000     0.426968   
C4       C      0.388930000000     0.878830000000     0.456680000000     0.427079   
C5       C      0.384520000000     0.932190000000     0.264710000000     0.428857   
C6       C      0.389080000000     0.810480000000     0.267370000000     0.430227   
C7       C      0.388450000000     0.871830000000     0.326880000000     0.42651    
C8       C      0.384950000000     0.870430000000     0.205570000000     0.426585   
C9       C      0.380850000000     0.059530000000     0.014880000000     0.426275   
C10      C      0.376020000000     0.181370000000     0.009180000000     0.42777    
C11      C      0.378320000000     0.117710000000     0.451730000000     0.426758   
C12      C      0.378620000000     0.123610000000     0.073000000000     0.425898   
C13      C      0.380080000000     0.062340000000     0.271520000000     0.42913    
C14      C      0.376990000000     0.183030000000     0.255150000000     0.429547   
C15      C      0.378490000000     0.114640000000     0.202730000000     0.426185   
C16      C      0.378560000000     0.130760000000     0.323080000000     0.427259   
C17      C      0.948710000000     0.638710000000     0.007620000000     0.429972   
C18      C      0.826760000000     0.644190000000     0.500540000000     0.429637   
C19      C      0.884580000000     0.640240000000     0.064680000000     0.428518   
C20      C      0.892640000000     0.643640000000     0.443880000000     0.428324   
C21      C      0.939690000000     0.639440000000     0.247140000000     0.4287     
C22      C      0.818460000000     0.648940000000     0.259870000000     0.431195   
C23      C      0.884160000000     0.645110000000     0.313850000000     0.428099   
C24      C      0.871930000000     0.642710000000     0.193370000000     0.429292   
C25      C      0.073750000000     0.628360000000     0.982650000000     0.430119   
C26      C      0.194820000000     0.619520000000     0.998080000000     0.429252   
C27      C      0.141060000000     0.624860000000     0.429970000000     0.427375   
C28      C      0.124460000000     0.622480000000     0.049950000000     0.428144   
C29      C      0.069990000000     0.628880000000     0.250820000000     0.4292     
C30      C      0.189670000000     0.616380000000     0.229670000000     0.432154   
C31      C      0.121230000000     0.621990000000     0.180450000000     0.427447   
C32      C      0.141750000000     0.623870000000     0.299830000000     0.428065   
C33      C      0.622170000000     0.060770000000     0.994610000000     0.429192   
C34      C      0.625970000000     0.181450000000     0.510260000000     0.4303     
C35      C      0.625510000000     0.114440000000     0.062500000000     0.425677   
C36      C      0.621910000000     0.129040000000     0.441850000000     0.424446   
C37      C      0.622030000000     0.070760000000     0.245000000000     0.429644   
C38      C      0.620680000000     0.192160000000     0.254500000000     0.429739   
C39      C      0.620010000000     0.126590000000     0.310970000000     0.424438   
C40      C      0.623270000000     0.135290000000     0.189740000000     0.425566   
C41      C      0.621070000000     0.931850000000     0.007420000000     0.429175   
C42      C      0.620700000000     0.810550000000     0.997890000000     0.433476   
C43      C      0.619420000000     0.874060000000     0.442600000000     0.429856   
C44      C      0.622840000000     0.866120000000     0.063290000000     0.429343   
C45      C      0.622180000000     0.940610000000     0.253020000000     0.429595   
C46      C      0.622860000000     0.818750000000     0.251930000000     0.42866    
C47      C      0.624320000000     0.880290000000     0.191610000000     0.429495   
C48      C      0.620130000000     0.880990000000     0.312530000000     0.429852   
C49      C      0.363420000000     0.307990000000     0.490300000000     0.428851   
C50      C      0.384010000000     0.428040000000     0.497510000000     0.428189   
C51      C      0.313540000000     0.378830000000     0.989130000000     0.431384   
C52      C      0.433490000000     0.357280000000     0.998630000000     0.432638   
C53      C      0.367720000000     0.309950000000     0.231930000000     0.42865    
C54      C      0.384030000000     0.430700000000     0.230860000000     0.426863   
C55      C      0.315060000000     0.377250000000     0.226260000000     0.427428   
C56      C      0.436020000000     0.362040000000     0.236100000000     0.427825   
C57      C      0.393480000000     0.679190000000     0.992470000000     0.428497   
C58      C      0.379690000000     0.558100000000     0.996650000000     0.428332   
C59      C      0.325640000000     0.624750000000     0.493340000000     0.426026   
C60      C      0.447440000000     0.611740000000     0.496060000000     0.425307   
C61      C      0.378270000000     0.682790000000     0.247860000000     0.42926    
C62      C      0.378610000000     0.561430000000     0.237400000000     0.426521   
C63      C      0.318020000000     0.622400000000     0.239400000000     0.431672   
C64      C      0.439740000000     0.623200000000     0.245970000000     0.429902   
C65      C      0.682990000000     0.370780000000     0.515560000000     0.430412   
C66      C      0.561070000000     0.374120000000     0.506850000000     0.429881   
C67      C      0.620510000000     0.311920000000     0.010950000000     0.429125   
C68      C      0.623110000000     0.433580000000     0.010890000000     0.429002   
C69      C      0.687690000000     0.385760000000     0.235080000000     0.428672   
C70      C      0.565810000000     0.376720000000     0.239250000000     0.427102   
C71      C      0.631370000000     0.320170000000     0.238540000000     0.42915    
C72      C      0.622370000000     0.441540000000     0.236430000000     0.428978   
C73      C      0.637900000000     0.683250000000     0.507840000000     0.431214   
C74      C      0.642230000000     0.561820000000     0.510070000000     0.429989   
C75      C      0.700680000000     0.624530000000     0.013200000000     0.426987   
C76      C      0.578610000000     0.621150000000     0.004220000000     0.4242     
C77      C      0.621080000000     0.688520000000     0.256370000000     0.428393   
C78      C      0.639000000000     0.568730000000     0.243690000000     0.428925   
C79      C      0.690570000000     0.636430000000     0.249620000000     0.430822   
C80      C      0.569910000000     0.618810000000     0.250070000000     0.430271   
C81      C      0.062050000000     0.386590000000     0.965980000000     0.426657   
C82      C      0.184400000000     0.381080000000     0.468530000000     0.429547   
C83      C      0.123490000000     0.386100000000     0.027180000000     0.431946   
C84      C      0.126460000000     0.382550000000     0.406630000000     0.43156    
C85      C      0.062620000000     0.385280000000     0.219200000000     0.431667   
C86      C      0.184710000000     0.387930000000     0.213490000000     0.429551   
C87      C      0.124890000000     0.384190000000     0.276650000000     0.431558   
C88      C      0.119160000000     0.388380000000     0.156230000000     0.432735   
C89      C      0.933960000000     0.386290000000     0.994750000000     0.426156   
C90      C      0.811740000000     0.383150000000     0.003500000000     0.429105   
C91      C      0.867140000000     0.385000000000     0.439270000000     0.430388   
C92      C      0.875950000000     0.384260000000     0.059860000000     0.429976   
C93      C      0.939850000000     0.384840000000     0.253280000000     0.431712   
C94      C      0.817860000000     0.382530000000     0.246770000000     0.429866   
C95      C      0.883490000000     0.384020000000     0.189560000000     0.429912   
C96      C      0.876430000000     0.383830000000     0.310280000000     0.430587   
C97      C      0.879490000000     0.353930000000     0.360810000000    -0.0104749  
C98      C      0.880820000000     0.414150000000     0.360450000000    -0.0106118  
C99      C      0.857280000000     0.354940000000     0.389570000000    -0.00998419 
C100     C      0.858490000000     0.414720000000     0.389140000000    -0.00999909 
C101     C      0.870540000000     0.413920000000     0.110270000000    -0.0104712  
C102     C      0.872810000000     0.353740000000     0.110000000000    -0.0104219  
C103     C      0.891690000000     0.414430000000     0.139800000000    -0.0101203  
C104     C      0.893970000000     0.354660000000     0.139570000000    -0.0103351  
C105     C      0.011020000000     0.414550000000     0.221870000000    -0.0102703  
C106     C      0.012030000000     0.354570000000     0.224390000000    -0.0105414  
C107     C      0.990730000000     0.415400000000     0.252040000000    -0.00979247 
C108     C      0.991600000000     0.355700000000     0.254490000000    -0.00984587 
C109     C      0.116820000000     0.412460000000     0.327240000000    -0.00985237 
C110     C      0.118290000000     0.352320000000     0.325700000000    -0.0105373  
C111     C      0.137110000000     0.412050000000     0.357120000000    -0.00956532 
C112     C      0.136700000000     0.352140000000     0.357150000000    -0.0103957  
C113     C      0.105800000000     0.359800000000     0.106730000000    -0.0096997  
C114     C      0.112450000000     0.419320000000     0.106490000000    -0.0101202  
C115     C      0.127420000000     0.356970000000     0.077880000000    -0.00963634 
C116     C      0.132940000000     0.416880000000     0.076480000000    -0.0105297  
C117     C      0.985010000000     0.417150000000     0.992500000000    -0.00963225 
C118     C      0.985610000000     0.357130000000     0.491440000000    -0.0105542  
C119     C      0.011040000000     0.417720000000     0.966620000000    -0.01168    
C120     C      0.009940000000     0.357980000000     0.464360000000    -0.0107598  
C121     C      0.739510000000     0.371320000000     0.211020000000    -0.00968759 
C122     C      0.736020000000     0.414570000000     0.252370000000    -0.0091314  
C123     C      0.768190000000     0.356700000000     0.228440000000    -0.00907529 
C124     C      0.766690000000     0.402130000000     0.267900000000    -0.00991864 
C125     C      0.646150000000     0.520330000000     0.209860000000    -0.0110734  
C126     C      0.644120000000     0.515790000000     0.269060000000    -0.00933274 
C127     C      0.621200000000     0.493300000000     0.207120000000    -0.0113679  
C128     C      0.616880000000     0.491840000000     0.266550000000    -0.00994027 
C129     C      0.733520000000     0.387780000000     0.040770000000    -0.00952306 
C130     C      0.733160000000     0.345430000000     0.498340000000    -0.00809341 
C131     C      0.760710000000     0.405230000000     0.023350000000    -0.0095819  
C132     C      0.761640000000     0.361380000000     0.482120000000    -0.00971995 
C133     C      0.647920000000     0.510430000000     0.481400000000    -0.010049   
C134     C      0.645170000000     0.511340000000     0.040800000000    -0.0103458  
C135     C      0.622470000000     0.484240000000     0.480510000000    -0.0103502  
C136     C      0.619860000000     0.484910000000     0.040100000000    -0.0107929  
C137     C      0.491720000000     0.628620000000     0.218450000000    -0.00985117 
C138     C      0.489160000000     0.629060000000     0.278200000000    -0.0107196  
C139     C      0.520520000000     0.606390000000     0.220010000000    -0.00995041 
C140     C      0.519280000000     0.608100000000     0.279320000000    -0.0103832  
C141     C      0.525650000000     0.622490000000     0.030680000000    -0.0103785  
C142     C      0.529600000000     0.626950000000     0.471240000000    -0.0111831  
C143     C      0.496730000000     0.600440000000     0.026990000000    -0.0116607  
C144     C      0.499610000000     0.605900000000     0.467950000000    -0.0110148  
C145     C      0.265530000000     0.354760000000     0.204480000000    -0.0104523  
C146     C      0.263740000000     0.398280000000     0.245960000000    -0.00920153 
C147     C      0.234850000000     0.368140000000     0.189580000000    -0.00954615 
C148     C      0.235620000000     0.413740000000     0.228440000000    -0.00953127 
C149     C      0.514750000000     0.375900000000     0.269860000000    -0.0116135  
C150     C      0.514590000000     0.378320000000     0.210040000000    -0.0102768  
C151     C      0.485360000000     0.353580000000     0.268580000000    -0.010915   
C152     C      0.488080000000     0.353460000000     0.209400000000    -0.00948755 
C153     C      0.396620000000     0.479950000000     0.260820000000    -0.0102238  
C154     C      0.392180000000     0.481850000000     0.201670000000    -0.0109623  
C155     C      0.374720000000     0.508870000000     0.263720000000    -0.0101919  
C156     C      0.372320000000     0.512750000000     0.204130000000    -0.0113604  
C157     C      0.231790000000     0.354330000000     0.490180000000    -0.00895611 
C158     C      0.237450000000     0.397780000000     0.448890000000    -0.0101356  
C159     C      0.259180000000     0.369110000000     0.009020000000    -0.0115845  
C160     C      0.268740000000     0.408590000000     0.964850000000    -0.00964525 
C161     C      0.482100000000     0.350460000000     0.531930000000    -0.0100984  
C162     C      0.486300000000     0.348980000000     0.472800000000    -0.00992903 
C163     C      0.507910000000     0.376410000000     0.033190000000    -0.0109744  
C164     C      0.512000000000     0.375000000000     0.973610000000    -0.00987263 
C165     C      0.369150000000     0.508120000000     0.026990000000    -0.011952   
C166     C      0.375050000000     0.506940000000     0.467670000000    -0.0100883  
C167     C      0.389980000000     0.477860000000     0.029370000000    -0.0116371  
C168     C      0.397840000000     0.478670000000     0.470460000000    -0.0102293  
C169     C      0.591100000000     0.737040000000     0.241450000000    -0.00933429 
C170     C      0.633100000000     0.738840000000     0.284220000000    -0.00976638 
C171     C      0.603360000000     0.768820000000     0.228170000000    -0.0102512  
C172     C      0.648040000000     0.768380000000     0.268750000000    -0.00926095 
C173     C      0.616010000000     0.732960000000     0.029820000000    -0.00855294 
C174     C      0.659030000000     0.734170000000     0.487530000000    -0.00960931 
C175     C      0.597370000000     0.758560000000     0.011800000000    -0.0118327  
C176     C      0.642050000000     0.762350000000     0.471800000000    -0.00853309 
C177     C      0.648290000000     0.891140000000     0.363050000000    -0.0101111  
C178     C      0.588290000000     0.887200000000     0.361890000000    -0.010543   
C179     C      0.649290000000     0.869960000000     0.392310000000    -0.00991539 
C180     C      0.588970000000     0.867510000000     0.392540000000    -0.0107021  
C181     C      0.593850000000     0.861140000000     0.114270000000    -0.00973226 
C182     C      0.653880000000     0.858630000000     0.113160000000    -0.0107534  
C183     C      0.595250000000     0.885790000000     0.140770000000    -0.0103525  
C184     C      0.655410000000     0.881870000000     0.141290000000    -0.0109154  
C185     C      0.596170000000     0.242700000000     0.237330000000    -0.00954129 
C186     C      0.641860000000     0.242600000000     0.276540000000    -0.00945459 
C187     C      0.613340000000     0.268310000000     0.217840000000    -0.00951353 
C188     C      0.656770000000     0.271270000000     0.259420000000    -0.00960061 
C189     C      0.591980000000     0.991250000000     0.258430000000    -0.010614   
C190     C      0.652320000000     0.991290000000     0.258580000000    -0.0106078  
C191     C      0.592180000000     0.020270000000     0.236490000000    -0.0100032  
C192     C      0.652290000000     0.020440000000     0.236760000000    -0.0102261  
C193     C      0.595800000000     0.262030000000     0.529360000000    -0.0102936  
C194     C      0.637610000000     0.262170000000     0.485820000000    -0.00832972 
C195     C      0.607610000000     0.228900000000     0.039730000000    -0.00987813 
C196     C      0.652800000000     0.232530000000     0.000250000000    -0.0119867  
C197     C      0.589200000000     0.120940000000     0.361270000000    -0.0113361  
C198     C      0.649260000000     0.116550000000     0.361140000000    -0.0109492  
C199     C      0.590860000000     0.139930000000     0.392510000000    -0.0114562  
C200     C      0.650890000000     0.136980000000     0.391100000000    -0.0105682  
C201     C      0.594430000000     0.135560000000     0.138240000000    -0.0105218  
C202     C      0.654520000000     0.138570000000     0.139410000000    -0.0113495  
C203     C      0.596310000000     0.108940000000     0.113510000000    -0.0106317  
C204     C      0.656220000000     0.112990000000     0.113250000000    -0.0112127  
C205     C      0.591160000000     0.010450000000     0.988320000000    -0.00917377 
C206     C      0.651250000000     0.009560000000     0.487590000000    -0.00991518 
C207     C      0.591070000000     0.982900000000     0.012250000000    -0.0119818  
C208     C      0.651310000000     0.982640000000     0.512040000000    -0.010585   
C209     C      0.239570000000     0.586880000000     0.239430000000    -0.00975523 
C210     C      0.239170000000     0.634130000000     0.202680000000    -0.0085183  
C211     C      0.266540000000     0.601990000000     0.258690000000    -0.00862299 
C212     C      0.268910000000     0.647550000000     0.219150000000    -0.00981622 
C213     C      0.244180000000     0.637130000000     0.025350000000    -0.00899614 
C214     C      0.245730000000     0.592740000000     0.985080000000    -0.00717867 
C215     C      0.275840000000     0.650360000000     0.512180000000    -0.0104515  
C216     C      0.274520000000     0.608570000000     0.468990000000    -0.00972221 
C217     C      0.153820000000     0.594070000000     0.349110000000    -0.00987202 
C218     C      0.159210000000     0.653380000000     0.348110000000    -0.0105358  
C219     C      0.134450000000     0.595790000000     0.379650000000    -0.0105328  
C220     C      0.141520000000     0.655870000000     0.379970000000    -0.0112367  
C221     C      0.125770000000     0.651710000000     0.130390000000    -0.0101104  
C222     C      0.124440000000     0.591160000000     0.130680000000    -0.0111392  
C223     C      0.108520000000     0.651500000000     0.098580000000    -0.0103818  
C224     C      0.108490000000     0.591950000000     0.097940000000    -0.0102913  
C225     C      0.741680000000     0.613640000000     0.267120000000    -0.00913395 
C226     C      0.740550000000     0.659560000000     0.228220000000    -0.00966102 
C227     C      0.768910000000     0.629640000000     0.285050000000    -0.00810338 
C228     C      0.767470000000     0.675950000000     0.247040000000    -0.0100177  
C229     C      0.987950000000     0.605680000000     0.239650000000    -0.0104217  
C230     C      0.992610000000     0.665540000000     0.239410000000    -0.0106197  
C231     C      0.017230000000     0.603630000000     0.261350000000    -0.0103889  
C232     C      0.022390000000     0.663260000000     0.260580000000    -0.0106965  
C233     C      0.750170000000     0.646620000000     0.036990000000    -0.0104149  
C234     C      0.752700000000     0.603820000000     0.495020000000    -0.00858809 
C235     C      0.774830000000     0.666510000000     0.018190000000    -0.0113075  
C236     C      0.777200000000     0.623370000000     0.476620000000    -0.00824085 
C237     C      0.881660000000     0.675560000000     0.364210000000    -0.0110427  
C238     C      0.880720000000     0.615300000000     0.364220000000    -0.010246   
C239     C      0.901910000000     0.674860000000     0.394570000000    -0.0105967  
C240     C      0.902290000000     0.615120000000     0.393360000000    -0.0103077  
C241     C      0.882900000000     0.609470000000     0.115040000000    -0.0110098  
C242     C      0.890330000000     0.669230000000     0.115390000000    -0.0105111  
C243     C      0.860520000000     0.612460000000     0.143800000000    -0.0106581  
C244     C      0.866490000000     0.671890000000     0.142590000000    -0.00975634 
C245     C      0.001910000000     0.665420000000     0.006410000000    -0.0119207  
C246     C      0.998000000000     0.605670000000     0.009820000000    -0.011284   
C247     C      0.024930000000     0.662090000000     0.478270000000    -0.0103592  
C248     C      0.020290000000     0.602540000000     0.481230000000    -0.0102806  
C249     C      0.339860000000     0.262300000000     0.252690000000    -0.00900468 
C250     C      0.383300000000     0.257030000000     0.211610000000    -0.00992646 
C251     C      0.354560000000     0.234750000000     0.271530000000    -0.00992737 
C252     C      0.400090000000     0.231830000000     0.232010000000    -0.00918398 
C253     C      0.352560000000     0.232120000000     0.027410000000    -0.00956351 
C254     C      0.397410000000     0.231520000000     0.987030000000    -0.0071138  
C255     C      0.336240000000     0.259070000000     0.508970000000    -0.00805589 
C256     C      0.379160000000     0.256310000000     0.467190000000    -0.0100979  
C257     C      0.408500000000     0.137800000000     0.373580000000    -0.0106018  
C258     C      0.348460000000     0.137790000000     0.373480000000    -0.0104852  
C259     C      0.408480000000     0.113900000000     0.401080000000    -0.0109955  
C260     C      0.348200000000     0.113980000000     0.401040000000    -0.0108988  
C261     C      0.408660000000     0.129080000000     0.123580000000    -0.0107729  
C262     C      0.348400000000     0.128650000000     0.123500000000    -0.0107828  
C263     C      0.408590000000     0.106810000000     0.152430000000    -0.0109844  
C264     C      0.348520000000     0.106500000000     0.152410000000    -0.0108607  
C265     C      0.397820000000     0.735080000000     0.229680000000    -0.00936566 
C266     C      0.354360000000     0.731100000000     0.271270000000    -0.00979302 
C267     C      0.414640000000     0.760670000000     0.249500000000    -0.00956837 
C268     C      0.369270000000     0.759370000000     0.288920000000    -0.00924436 
C269     C      0.413010000000     0.983920000000     0.260100000000    -0.0107851  
C270     C      0.352680000000     0.981850000000     0.258830000000    -0.0108091  
C271     C      0.411370000000     0.013030000000     0.281920000000    -0.0100962  
C272     C      0.351380000000     0.011160000000     0.280470000000    -0.0102812  
C273     C      0.409500000000     0.757400000000     0.026470000000    -0.0099665  
C274     C      0.365320000000     0.759630000000     0.485400000000    -0.00925213 
C275     C      0.422410000000     0.727010000000     0.010890000000    -0.011631   
C276     C      0.380650000000     0.731240000000     0.468140000000    -0.00989188 
C277     C      0.360130000000     0.890420000000     0.406550000000    -0.0103023  
C278     C      0.420020000000     0.887850000000     0.407040000000    -0.0107474  
C279     C      0.359090000000     0.868410000000     0.377740000000    -0.0104652  
C280     C      0.419510000000     0.867130000000     0.376960000000    -0.0113893  
C281     C      0.354850000000     0.849250000000     0.126210000000    -0.0109003  
C282     C      0.414750000000     0.851380000000     0.126980000000    -0.0100058  
C283     C      0.353610000000     0.871250000000     0.155390000000    -0.0113093  
C284     C      0.413920000000     0.874910000000     0.154560000000    -0.0107205  
C285     C      0.353780000000     0.978860000000     0.035170000000    -0.0102176  
C286     C      0.413660000000     0.980810000000     0.035310000000    -0.0102406  
C287     C      0.352590000000     0.007500000000     0.512650000000    -0.0105736  
C288     C      0.413020000000     0.009730000000     0.513070000000    -0.0109443  
C289     C      0.385350000000     0.929380000000     0.526050000000     0.427007   
C290     C      0.388810000000     0.808750000000     0.007630000000     0.426967   
C291     C      0.385480000000     0.859440000000     0.576450000000     0.426985   
C292     C      0.388930000000     0.878830000000     0.956680000000     0.426965   
C293     C      0.384520000000     0.932190000000     0.764710000000     0.428857   
C294     C      0.389080000000     0.810480000000     0.767370000000     0.43023    
C295     C      0.388450000000     0.871830000000     0.826880000000     0.426511   
C296     C      0.384950000000     0.870430000000     0.705570000000     0.426581   
C297     C      0.380850000000     0.059530000000     0.514880000000     0.426558   
C298     C      0.376020000000     0.181370000000     0.509180000000     0.427901   
C299     C      0.378320000000     0.117710000000     0.951730000000     0.426556   
C300     C      0.378620000000     0.123610000000     0.573000000000     0.425942   
C301     C      0.380080000000     0.062340000000     0.771520000000     0.429126   
C302     C      0.376990000000     0.183030000000     0.755150000000     0.429555   
C303     C      0.378490000000     0.114640000000     0.702730000000     0.426214   
C304     C      0.378560000000     0.130760000000     0.823080000000     0.427228   
C305     C      0.948710000000     0.638710000000     0.507620000000     0.430295   
C306     C      0.826760000000     0.644190000000     0.000540000000     0.426851   
C307     C      0.884580000000     0.640240000000     0.564680000000     0.428649   
C308     C      0.892640000000     0.643640000000     0.943880000000     0.428109   
C309     C      0.939690000000     0.639440000000     0.747140000000     0.428721   
C310     C      0.818460000000     0.648940000000     0.759870000000     0.431202   
C311     C      0.884160000000     0.645110000000     0.813850000000     0.428106   
C312     C      0.871930000000     0.642710000000     0.693370000000     0.429217   
C313     C      0.073750000000     0.628360000000     0.482650000000     0.42983    
C314     C      0.194820000000     0.619520000000     0.498080000000     0.427938   
C315     C      0.141060000000     0.624860000000     0.929970000000     0.427391   
C316     C      0.124460000000     0.622480000000     0.549950000000     0.42796    
C317     C      0.069990000000     0.628880000000     0.750820000000     0.429198   
C318     C      0.189670000000     0.616380000000     0.729670000000     0.432135   
C319     C      0.121230000000     0.621990000000     0.680450000000     0.427406   
C320     C      0.141750000000     0.623870000000     0.799830000000     0.428166   
C321     C      0.622170000000     0.060770000000     0.494610000000     0.429335   
C322     C      0.625970000000     0.181450000000     0.010260000000     0.429894   
C323     C      0.625510000000     0.114440000000     0.562500000000     0.425882   
C324     C      0.621910000000     0.129040000000     0.941850000000     0.424158   
C325     C      0.622030000000     0.070760000000     0.745000000000     0.429635   
C326     C      0.620680000000     0.192160000000     0.754500000000     0.429728   
C327     C      0.620010000000     0.126590000000     0.810970000000     0.424498   
C328     C      0.623270000000     0.135290000000     0.689730000000     0.425461   
C329     C      0.621070000000     0.931850000000     0.507420000000     0.42946    
C330     C      0.620700000000     0.810550000000     0.497890000000     0.432193   
C331     C      0.619420000000     0.874060000000     0.942600000000     0.429605   
C332     C      0.622840000000     0.866120000000     0.563290000000     0.429487   
C333     C      0.622180000000     0.940610000000     0.753020000000     0.429589   
C334     C      0.622860000000     0.818750000000     0.751930000000     0.428651   
C335     C      0.624320000000     0.880290000000     0.691610000000     0.429363   
C336     C      0.620130000000     0.880990000000     0.812530000000     0.429925   
C337     C      0.363420000000     0.307990000000     0.990300000000     0.430342   
C338     C      0.384010000000     0.428040000000     0.997510000000     0.429735   
C339     C      0.313540000000     0.378830000000     0.489130000000     0.429902   
C340     C      0.433490000000     0.357280000000     0.498630000000     0.430056   
C341     C      0.367720000000     0.309950000000     0.731940000000     0.428637   
C342     C      0.384030000000     0.430700000000     0.730860000000     0.426854   
C343     C      0.315060000000     0.377250000000     0.726260000000     0.427422   
C344     C      0.436020000000     0.362040000000     0.736100000000     0.427566   
C345     C      0.393480000000     0.679190000000     0.492470000000     0.427017   
C346     C      0.379690000000     0.558100000000     0.496650000000     0.426518   
C347     C      0.325640000000     0.624750000000     0.993340000000     0.427502   
C348     C      0.447440000000     0.611740000000     0.996060000000     0.426843   
C349     C      0.378270000000     0.682790000000     0.747860000000     0.429266   
C350     C      0.378610000000     0.561430000000     0.737400000000     0.426517   
C351     C      0.318020000000     0.622400000000     0.739400000000     0.431669   
C352     C      0.439740000000     0.623200000000     0.745970000000     0.42989    
C353     C      0.682990000000     0.370780000000     0.015560000000     0.428963   
C354     C      0.561070000000     0.374120000000     0.006850000000     0.428386   
C355     C      0.620510000000     0.311920000000     0.510950000000     0.430844   
C356     C      0.623110000000     0.433580000000     0.510890000000     0.430501   
C357     C      0.687690000000     0.385760000000     0.735080000000     0.42867    
C358     C      0.565810000000     0.376720000000     0.739250000000     0.427097   
C359     C      0.631370000000     0.320170000000     0.738540000000     0.429148   
C360     C      0.622370000000     0.441540000000     0.736430000000     0.428973   
C361     C      0.637900000000     0.683250000000     0.007840000000     0.429787   
C362     C      0.642230000000     0.561820000000     0.010070000000     0.428486   
C363     C      0.700680000000     0.624530000000     0.513200000000     0.428408   
C364     C      0.578610000000     0.621150000000     0.504230000000     0.425693   
C365     C      0.621080000000     0.688520000000     0.756370000000     0.428645   
C366     C      0.639000000000     0.568730000000     0.743690000000     0.428925   
C367     C      0.690570000000     0.636430000000     0.749620000000     0.430825   
C368     C      0.569910000000     0.618810000000     0.750080000000     0.430272   
C369     C      0.062050000000     0.386590000000     0.465980000000     0.426468   
C370     C      0.184400000000     0.381080000000     0.968530000000     0.429876   
C371     C      0.123490000000     0.386100000000     0.527180000000     0.431781   
C372     C      0.126460000000     0.382550000000     0.906630000000     0.431644   
C373     C      0.062620000000     0.385280000000     0.719200000000     0.431668   
C374     C      0.184710000000     0.387930000000     0.713490000000     0.42958    
C375     C      0.124890000000     0.384190000000     0.776650000000     0.431555   
C376     C      0.119160000000     0.388380000000     0.656230000000     0.432738   
C377     C      0.933960000000     0.386290000000     0.494750000000     0.425766   
C378     C      0.811740000000     0.383150000000     0.503500000000     0.42888    
C379     C      0.867140000000     0.385000000000     0.939260000000     0.430479   
C380     C      0.875950000000     0.384260000000     0.559860000000     0.429641   
C381     C      0.939850000000     0.384840000000     0.753280000000     0.431714   
C382     C      0.817860000000     0.382530000000     0.746770000000     0.429881   
C383     C      0.883490000000     0.384020000000     0.689560000000     0.429911   
C384     C      0.876430000000     0.383830000000     0.810280000000     0.430581   
C385     C      0.879490000000     0.353930000000     0.860810000000    -0.0104808  
C386     C      0.880820000000     0.414150000000     0.860450000000    -0.0106174  
C387     C      0.857280000000     0.354940000000     0.889570000000    -0.00996776 
C388     C      0.858490000000     0.414720000000     0.889140000000    -0.00999641 
C389     C      0.870540000000     0.413920000000     0.610270000000    -0.0104906  
C390     C      0.872810000000     0.353740000000     0.610000000000    -0.0104255  
C391     C      0.891690000000     0.414430000000     0.639800000000    -0.0101112  
C392     C      0.893970000000     0.354660000000     0.639560000000    -0.0103556  
C393     C      0.011020000000     0.414550000000     0.721870000000    -0.010298   
C394     C      0.012030000000     0.354570000000     0.724390000000    -0.0105695  
C395     C      0.990730000000     0.415400000000     0.752040000000    -0.00977123 
C396     C      0.991600000000     0.355700000000     0.754490000000    -0.00982491 
C397     C      0.116820000000     0.412460000000     0.827240000000    -0.00984272 
C398     C      0.118290000000     0.352320000000     0.825710000000    -0.010555   
C399     C      0.137110000000     0.412050000000     0.857110000000    -0.00958716 
C400     C      0.136700000000     0.352140000000     0.857150000000    -0.010389   
C401     C      0.105800000000     0.359800000000     0.606730000000    -0.00969888 
C402     C      0.112450000000     0.419320000000     0.606490000000    -0.0101142  
C403     C      0.127420000000     0.356970000000     0.577880000000    -0.00964254 
C404     C      0.132940000000     0.416880000000     0.576480000000    -0.0105403  
C405     C      0.985010000000     0.417150000000     0.492500000000    -0.0112646  
C406     C      0.985610000000     0.357130000000     0.991440000000    -0.00891383 
C407     C      0.011040000000     0.417720000000     0.466620000000    -0.0112653  
C408     C      0.009940000000     0.357980000000     0.964360000000    -0.011195   
C409     C      0.739510000000     0.371320000000     0.711020000000    -0.00964521 
C410     C      0.736020000000     0.414570000000     0.752370000000    -0.00912247 
C411     C      0.768190000000     0.356700000000     0.728440000000    -0.00911028 
C412     C      0.766690000000     0.402130000000     0.767900000000    -0.00994707 
C413     C      0.646150000000     0.520330000000     0.709860000000    -0.0110765  
C414     C      0.644120000000     0.515790000000     0.769060000000    -0.00933606 
C415     C      0.621200000000     0.493300000000     0.707120000000    -0.0113712  
C416     C      0.616880000000     0.491840000000     0.766550000000    -0.00994323 
C417     C      0.733520000000     0.387780000000     0.540770000000    -0.00943953 
C418     C      0.733160000000     0.345430000000     0.998340000000    -0.00583437 
C419     C      0.760710000000     0.405230000000     0.523350000000    -0.00954319 
C420     C      0.761640000000     0.361380000000     0.982120000000    -0.00934926 
C421     C      0.647920000000     0.510430000000     0.981400000000    -0.00933436 
C422     C      0.645170000000     0.511340000000     0.540800000000    -0.0102834  
C423     C      0.622470000000     0.484240000000     0.980510000000    -0.00961008 
C424     C      0.619860000000     0.484910000000     0.540090000000    -0.0105701  
C425     C      0.491720000000     0.628620000000     0.718440000000    -0.00998296 
C426     C      0.489160000000     0.629060000000     0.778210000000    -0.0108441  
C427     C      0.520520000000     0.606390000000     0.720010000000    -0.00988603 
C428     C      0.519280000000     0.608100000000     0.779320000000    -0.0103428  
C429     C      0.525650000000     0.622490000000     0.530680000000    -0.0104789  
C430     C      0.529600000000     0.626950000000     0.971240000000    -0.0102664  
C431     C      0.496730000000     0.600440000000     0.526990000000    -0.0107478  
C432     C      0.499610000000     0.605900000000     0.967950000000    -0.0111279  
C433     C      0.265530000000     0.354760000000     0.704480000000    -0.0104523  
C434     C      0.263740000000     0.398280000000     0.745960000000    -0.00920391 
C435     C      0.234850000000     0.368140000000     0.689580000000    -0.00955086 
C436     C      0.235620000000     0.413740000000     0.728440000000    -0.00953157 
C437     C      0.514750000000     0.375900000000     0.769860000000    -0.0116135  
C438     C      0.514590000000     0.378320000000     0.710040000000    -0.0102919  
C439     C      0.485360000000     0.353580000000     0.768580000000    -0.0109308  
C440     C      0.488080000000     0.353460000000     0.709400000000    -0.0094571  
C441     C      0.396620000000     0.479950000000     0.760820000000    -0.0102308  
C442     C      0.392180000000     0.481850000000     0.701670000000    -0.0109656  
C443     C      0.374720000000     0.508870000000     0.763720000000    -0.0101816  
C444     C      0.372320000000     0.512750000000     0.704130000000    -0.0113628  
C445     C      0.231790000000     0.354330000000     0.990180000000    -0.00598096 
C446     C      0.237450000000     0.397780000000     0.948890000000    -0.00993193 
C447     C      0.259180000000     0.369110000000     0.509010000000    -0.00897218 
C448     C      0.268740000000     0.408590000000     0.464850000000    -0.00960983 
C449     C      0.482100000000     0.350460000000     0.031930000000    -0.0100549  
C450     C      0.486300000000     0.348980000000     0.972800000000    -0.00909516 
C451     C      0.507910000000     0.376410000000     0.533190000000    -0.0108166  
C452     C      0.512000000000     0.375000000000     0.473610000000    -0.0105877  
C453     C      0.369150000000     0.508120000000     0.526990000000    -0.011237   
C454     C      0.375050000000     0.506940000000     0.967670000000    -0.00993567 
C455     C      0.389980000000     0.477860000000     0.529370000000    -0.0109794  
C456     C      0.397840000000     0.478670000000     0.970460000000    -0.0102005  
C457     C      0.591100000000     0.737040000000     0.741450000000    -0.0093273  
C458     C      0.633100000000     0.738840000000     0.784220000000    -0.00976957 
C459     C      0.603360000000     0.768820000000     0.728170000000    -0.0102577  
C460     C      0.648040000000     0.768380000000     0.768750000000    -0.00923656 
C461     C      0.616010000000     0.732960000000     0.529820000000    -0.0091155  
C462     C      0.659030000000     0.734170000000     0.987530000000    -0.00713472 
C463     C      0.597370000000     0.758560000000     0.511800000000    -0.00936256 
C464     C      0.642050000000     0.762350000000     0.971800000000    -0.00913004 
C465     C      0.648290000000     0.891140000000     0.863050000000    -0.0100911  
C466     C      0.588290000000     0.887200000000     0.861890000000    -0.0105322  
C467     C      0.649290000000     0.869960000000     0.892300000000    -0.00995758 
C468     C      0.588970000000     0.867510000000     0.892540000000    -0.0107061  
C469     C      0.593850000000     0.861140000000     0.614270000000    -0.00972938 
C470     C      0.653880000000     0.858630000000     0.613160000000    -0.0107463  
C471     C      0.595250000000     0.885790000000     0.640770000000    -0.0103565  
C472     C      0.655410000000     0.881870000000     0.641290000000    -0.0109224  
C473     C      0.596170000000     0.242700000000     0.737320000000    -0.00961936 
C474     C      0.641860000000     0.242600000000     0.776540000000    -0.00952361 
C475     C      0.613340000000     0.268310000000     0.717840000000    -0.00948482 
C476     C      0.656770000000     0.271270000000     0.759420000000    -0.00958123 
C477     C      0.591980000000     0.991250000000     0.758420000000    -0.0105684  
C478     C      0.652320000000     0.991290000000     0.758580000000    -0.0106103  
C479     C      0.592180000000     0.020270000000     0.736490000000    -0.0100581  
C480     C      0.652290000000     0.020440000000     0.736760000000    -0.0102327  
C481     C      0.595800000000     0.262030000000     0.029360000000    -0.0102024  
C482     C      0.637610000000     0.262170000000     0.985810000000    -0.00588216 
C483     C      0.607610000000     0.228900000000     0.539720000000    -0.00958193 
C484     C      0.652800000000     0.232530000000     0.500250000000    -0.00910146 
C485     C      0.589200000000     0.120940000000     0.861270000000    -0.0113308  
C486     C      0.649260000000     0.116550000000     0.861140000000    -0.0109364  
C487     C      0.590860000000     0.139930000000     0.892510000000    -0.0114864  
C488     C      0.650890000000     0.136980000000     0.891100000000    -0.0106028  
C489     C      0.594430000000     0.135560000000     0.638240000000    -0.0105151  
C490     C      0.654520000000     0.138570000000     0.639410000000    -0.0113561  
C491     C      0.596310000000     0.108940000000     0.613510000000    -0.0106276  
C492     C      0.656220000000     0.112990000000     0.613240000000    -0.011183   
C493     C      0.591160000000     0.010450000000     0.488320000000    -0.0104079  
C494     C      0.651250000000     0.009560000000     0.987590000000    -0.00867524 
C495     C      0.591070000000     0.982900000000     0.512250000000    -0.0107491  
C496     C      0.651310000000     0.982640000000     0.012040000000    -0.0118269  
C497     C      0.239570000000     0.586880000000     0.739430000000    -0.00975958 
C498     C      0.239170000000     0.634130000000     0.702680000000    -0.00852555 
C499     C      0.266540000000     0.601990000000     0.758690000000    -0.00862528 
C500     C      0.268910000000     0.647550000000     0.719150000000    -0.00981704 
C501     C      0.244180000000     0.637130000000     0.525350000000    -0.00963074 
C502     C      0.245730000000     0.592740000000     0.485080000000    -0.00968209 
C503     C      0.275840000000     0.650360000000     0.012180000000    -0.0129224  
C504     C      0.274520000000     0.608570000000     0.969000000000    -0.0101913  
C505     C      0.153820000000     0.594070000000     0.849110000000    -0.00987026 
C506     C      0.159210000000     0.653380000000     0.848110000000    -0.0105242  
C507     C      0.134450000000     0.595790000000     0.879650000000    -0.0105369  
C508     C      0.141520000000     0.655870000000     0.879970000000    -0.0112513  
C509     C      0.125770000000     0.651710000000     0.630400000000    -0.010105   
C510     C      0.124440000000     0.591160000000     0.630680000000    -0.0111345  
C511     C      0.108520000000     0.651500000000     0.598570000000    -0.0103835  
C512     C      0.108490000000     0.591950000000     0.597940000000    -0.010304   
C513     C      0.741680000000     0.613640000000     0.767120000000    -0.00917514 
C514     C      0.740550000000     0.659560000000     0.728220000000    -0.00961475 
C515     C      0.768910000000     0.629640000000     0.785050000000    -0.00809817 
C516     C      0.767470000000     0.675950000000     0.747040000000    -0.0100415  
C517     C      0.987950000000     0.605680000000     0.739640000000    -0.010431   
C518     C      0.992610000000     0.665540000000     0.739410000000    -0.0106038  
C519     C      0.017230000000     0.603630000000     0.761340000000    -0.0103549  
C520     C      0.022390000000     0.663260000000     0.760580000000    -0.0107115  
C521     C      0.750170000000     0.646620000000     0.536990000000    -0.0105989  
C522     C      0.752700000000     0.603820000000     0.995020000000    -0.00607336 
C523     C      0.774830000000     0.666510000000     0.518190000000    -0.0102261  
C524     C      0.777200000000     0.623370000000     0.976620000000    -0.00893523 
C525     C      0.881660000000     0.675560000000     0.864210000000    -0.0110404  
C526     C      0.880720000000     0.615300000000     0.864220000000    -0.0102442  
C527     C      0.901910000000     0.674860000000     0.894570000000    -0.0106058  
C528     C      0.902290000000     0.615120000000     0.893360000000    -0.0103268  
C529     C      0.882900000000     0.609470000000     0.615040000000    -0.0110094  
C530     C      0.890330000000     0.669230000000     0.615390000000    -0.0105115  
C531     C      0.860520000000     0.612460000000     0.643800000000    -0.0106634  
C532     C      0.866490000000     0.671890000000     0.642590000000    -0.0097589  
C533     C      0.001910000000     0.665420000000     0.506410000000    -0.0107478  
C534     C      0.998000000000     0.605670000000     0.509820000000    -0.0100171  
C535     C      0.024930000000     0.662090000000     0.978270000000    -0.00913027 
C536     C      0.020290000000     0.602540000000     0.981230000000    -0.00901153 
C537     C      0.339860000000     0.262300000000     0.752690000000    -0.00906883 
C538     C      0.383300000000     0.257030000000     0.711610000000    -0.0099277  
C539     C      0.354560000000     0.234750000000     0.771520000000    -0.00981532 
C540     C      0.400090000000     0.231830000000     0.732010000000    -0.00918448 
C541     C      0.352560000000     0.232120000000     0.527410000000    -0.0101371  
C542     C      0.397410000000     0.231520000000     0.487030000000    -0.00960126 
C543     C      0.336240000000     0.259070000000     0.008970000000    -0.0104869  
C544     C      0.379160000000     0.256310000000     0.967200000000    -0.0105559  
C545     C      0.408500000000     0.137800000000     0.873580000000    -0.0105988  
C546     C      0.348460000000     0.137790000000     0.873480000000    -0.0104794  
C547     C      0.408480000000     0.113900000000     0.901080000000    -0.0110072  
C548     C      0.348200000000     0.113980000000     0.901040000000    -0.0109141  
C549     C      0.408660000000     0.129080000000     0.623580000000    -0.0107775  
C550     C      0.348400000000     0.128650000000     0.623500000000    -0.01079    
C551     C      0.408590000000     0.106810000000     0.652430000000    -0.0109825  
C552     C      0.348520000000     0.106500000000     0.652410000000    -0.0108612  
C553     C      0.397820000000     0.735080000000     0.729680000000    -0.00932356 
C554     C      0.354360000000     0.731100000000     0.771270000000    -0.00989404 
C555     C      0.414640000000     0.760670000000     0.749500000000    -0.00958488 
C556     C      0.369270000000     0.759370000000     0.788910000000    -0.00909079 
C557     C      0.413010000000     0.983920000000     0.760100000000    -0.0107769  
C558     C      0.352680000000     0.981850000000     0.758830000000    -0.0108159  
C559     C      0.411370000000     0.013030000000     0.781920000000    -0.0101078  
C560     C      0.351380000000     0.011160000000     0.780470000000    -0.010257   
C561     C      0.409500000000     0.757400000000     0.526470000000    -0.0105686  
C562     C      0.365320000000     0.759630000000     0.985400000000    -0.00673167 
C563     C      0.422410000000     0.727010000000     0.510890000000    -0.0091744  
C564     C      0.380650000000     0.731240000000     0.968140000000    -0.0104247  
C565     C      0.360130000000     0.890420000000     0.906550000000    -0.0103018  
C566     C      0.420020000000     0.887850000000     0.907040000000    -0.0107592  
C567     C      0.359090000000     0.868410000000     0.877740000000    -0.0104745  
C568     C      0.419510000000     0.867130000000     0.876960000000    -0.0113815  
C569     C      0.354850000000     0.849250000000     0.626200000000    -0.0108849  
C570     C      0.414750000000     0.851380000000     0.626980000000    -0.0100077  
C571     C      0.353610000000     0.871250000000     0.655390000000    -0.0113241  
C572     C      0.413920000000     0.874910000000     0.654560000000    -0.0107236  
C573     C      0.353780000000     0.978860000000     0.535170000000    -0.0106537  
C574     C      0.413660000000     0.980810000000     0.535310000000    -0.0106348  
C575     C      0.352590000000     0.007500000000     0.012650000000    -0.012155   
C576     C      0.413020000000     0.009730000000     0.013070000000    -0.0125119  
H1       H      0.905950000000     0.416000000000     0.369080000000     0.0399393  
H2       H      0.904540000000     0.351020000000     0.369380000000     0.0401112  
H3       H      0.861460000000     0.333290000000     0.404230000000     0.0431416  
H4       H      0.875830000000     0.435570000000     0.345700000000     0.0434211  
H5       H      0.863770000000     0.436350000000     0.403520000000     0.0427516  
H6       H      0.833380000000     0.416590000000     0.380460000000     0.0383575  
H7       H      0.873390000000     0.332610000000     0.346310000000     0.0431166  
H8       H      0.832100000000     0.354030000000     0.380920000000     0.0378613  
H9       H      0.847520000000     0.350240000000     0.117610000000     0.039643   
H10      H      0.845070000000     0.415400000000     0.117940000000     0.0394273  
H11      H      0.885480000000     0.435770000000     0.154230000000     0.0430999  
H12      H      0.879850000000     0.332750000000     0.095440000000     0.0430242  
H13      H      0.889380000000     0.332810000000     0.153820000000     0.0431654  
H14      H      0.919470000000     0.354090000000     0.131860000000     0.0386161  
H15      H      0.875850000000     0.435560000000     0.095940000000     0.0435033  
H16      H      0.917070000000     0.416980000000     0.132110000000     0.0386387  
H17      H      0.995720000000     0.351850000000     0.203700000000     0.0398698  
H18      H      0.994550000000     0.414880000000     0.201120000000     0.0398648  
H19      H      0.975170000000     0.436940000000     0.251720000000     0.0431293  
H20      H      0.027830000000     0.333220000000     0.225270000000     0.043225   
H21      H      0.976650000000     0.333780000000     0.255920000000     0.0431901  
H22      H      0.007990000000     0.355820000000     0.275300000000     0.0388708  
H23      H      0.026030000000     0.436440000000     0.220750000000     0.0434653  
H24      H      0.007170000000     0.417460000000     0.272710000000     0.0391206  
H25      H      0.092400000000     0.348830000000     0.330980000000     0.0387419  
H26      H      0.091120000000     0.413730000000     0.334190000000     0.04007    
H27      H      0.131540000000     0.433800000000     0.371180000000     0.0434022  
H28      H      0.126370000000     0.331650000000     0.311220000000     0.0431615  
H29      H      0.129380000000     0.330790000000     0.371060000000     0.0430164  
H30      H      0.162700000000     0.349820000000     0.351790000000     0.0388025  
H31      H      0.122670000000     0.434460000000     0.313670000000     0.0430064  
H32      H      0.162800000000     0.413290000000     0.350130000000     0.0384049  
H33      H      0.087220000000     0.423890000000     0.099280000000     0.0388443  
H34      H      0.080530000000     0.361320000000     0.098420000000     0.0391229  
H35      H      0.119940000000     0.335680000000     0.063970000000     0.0429737  
H36      H      0.120760000000     0.440090000000     0.120710000000     0.0431384  
H37      H      0.128550000000     0.438370000000     0.061630000000     0.0433282  
H38      H      0.158610000000     0.417100000000     0.083610000000     0.0393978  
H39      H      0.108130000000     0.337730000000     0.121190000000     0.0434932  
H40      H      0.152420000000     0.352920000000     0.086140000000     0.0389876  
H41      H      0.998920000000     0.354910000000     0.514190000000     0.0402484  
H42      H      0.997070000000     0.419340000000     0.015920000000     0.038146   
H43      H      0.026760000000     0.438800000000     0.970440000000     0.043243   
H44      H      0.970460000000     0.335470000000     0.488700000000     0.0433667  
H45      H      0.024740000000     0.335940000000     0.465310000000     0.0436093  
H46      H      0.996560000000     0.357760000000     0.441550000000     0.0396429  
H47      H      0.969320000000     0.438400000000     0.989520000000     0.0429908  
H48      H      0.998970000000     0.420780000000     0.943300000000     0.0391519  
H49      H      0.742770000000     0.434310000000     0.236030000000     0.0383851  
H50      H      0.748570000000     0.387730000000     0.192310000000     0.0414259  
H51      H      0.784130000000     0.344740000000     0.210910000000     0.0394171  
H52      H      0.719980000000     0.424870000000     0.270810000000     0.0401304  
H53      H      0.781020000000     0.422630000000     0.276890000000     0.0409769  
H54      H      0.759700000000     0.387510000000     0.288810000000     0.0391289  
H55      H      0.725460000000     0.351930000000     0.199480000000     0.0399349  
H56      H      0.759280000000     0.338370000000     0.245390000000     0.0413511  
H57      H      0.667180000000     0.502440000000     0.269610000000     0.038529   
H58      H      0.670400000000     0.509470000000     0.208010000000     0.0385871  
H59      H      0.626690000000     0.478610000000     0.185860000000     0.0431581  
H60      H      0.641960000000     0.529060000000     0.291770000000     0.0432226  
H61      H      0.617070000000     0.476310000000     0.287900000000     0.0438976  
H62      H      0.593790000000     0.505150000000     0.266420000000     0.0407994  
H63      H      0.643170000000     0.537050000000     0.189610000000     0.0430628  
H64      H      0.597280000000     0.504420000000     0.203450000000     0.0391139  
H65      H      0.742600000000     0.326330000000     0.514110000000     0.0387426  
H66      H      0.744230000000     0.371760000000     0.058950000000     0.04111    
H67      H      0.776170000000     0.417640000000     0.040980000000     0.0386779  
H68      H      0.717630000000     0.333790000000     0.480250000000     0.0386585  
H69      H      0.777360000000     0.342790000000     0.471460000000     0.0405797  
H70      H      0.752280000000     0.376310000000     0.462370000000     0.0400791  
H71      H      0.717970000000     0.405560000000     0.052940000000     0.0385267  
H72      H      0.750030000000     0.423480000000     0.007360000000     0.0413317  
H73      H      0.669120000000     0.500000000000     0.043600000000     0.0387092  
H74      H      0.671920000000     0.498830000000     0.481250000000     0.038722   
H75      H      0.626770000000     0.468900000000     0.459430000000     0.0434372  
H76      H      0.640900000000     0.526730000000     0.061850000000     0.0433232  
H77      H      0.622490000000     0.470020000000     0.061760000000     0.043529   
H78      H      0.595780000000     0.496280000000     0.040860000000     0.0396343  
H79      H      0.645940000000     0.525130000000     0.459550000000     0.0432132  
H80      H      0.598630000000     0.495760000000     0.477540000000     0.0399338  
H81      H      0.496660000000     0.654400000000     0.280900000000     0.0395573  
H82      H      0.500570000000     0.653610000000     0.216570000000     0.0393071  
H83      H      0.535570000000     0.610090000000     0.198580000000     0.0433097  
H84      H      0.473650000000     0.622940000000     0.298760000000     0.0433806  
H85      H      0.533340000000     0.614200000000     0.300880000000     0.0431664  
H86      H      0.511580000000     0.582760000000     0.281440000000     0.0385067  
H87      H      0.477980000000     0.623170000000     0.196520000000     0.0434165  
H88      H      0.511670000000     0.581330000000     0.219530000000     0.0391272  
H89      H      0.521990000000     0.652360000000     0.469870000000     0.0395287  
H90      H      0.516770000000     0.647280000000     0.034280000000     0.038812   
H91      H      0.481060000000     0.603110000000     0.048140000000     0.0435216  
H92      H      0.545680000000     0.622240000000     0.450740000000     0.0433193  
H93      H      0.486070000000     0.613450000000     0.446520000000     0.043216   
H94      H      0.507570000000     0.580830000000     0.464200000000     0.0387543  
H95      H      0.538970000000     0.615380000000     0.052390000000     0.0431234  
H96      H      0.505510000000     0.575360000000     0.026520000000     0.0391171  
H97      H      0.254200000000     0.382760000000     0.265170000000     0.0422399  
H98      H      0.258670000000     0.334570000000     0.220210000000     0.0386061  
H99      H      0.219750000000     0.348120000000     0.180760000000     0.0409832  
H100     H      0.278700000000     0.417300000000     0.256980000000     0.0387565  
H101     H      0.220530000000     0.426950000000     0.245820000000     0.0402437  
H102     H      0.245200000000     0.431090000000     0.210860000000     0.04148    
H103     H      0.281090000000     0.344740000000     0.185490000000     0.0413681  
H104     H      0.241860000000     0.382680000000     0.168620000000     0.038476   
H105     H      0.503490000000     0.402450000000     0.208870000000     0.0415724  
H106     H      0.506020000000     0.400630000000     0.274080000000     0.0393586  
H107     H      0.469590000000     0.358630000000     0.289220000000     0.0427592  
H108     H      0.529570000000     0.375180000000     0.188470000000     0.0437598  
H109     H      0.474230000000     0.356040000000     0.187040000000     0.0432846  
H110     H      0.499320000000     0.329360000000     0.209250000000     0.0380439  
H111     H      0.529880000000     0.369080000000     0.290470000000     0.0430958  
H112     H      0.494030000000     0.328570000000     0.270830000000     0.038248   
H113     H      0.417700000000     0.488610000000     0.198010000000     0.0386753  
H114     H      0.421880000000     0.488490000000     0.260370000000     0.0393481  
H115     H      0.381170000000     0.521990000000     0.285730000000     0.0434876  
H116     H      0.384230000000     0.468220000000     0.180460000000     0.043043   
H117     H      0.378560000000     0.528530000000     0.183840000000     0.0431821  
H118     H      0.346560000000     0.506340000000     0.201780000000     0.0394085  
H119     H      0.393670000000     0.464790000000     0.282250000000     0.0435792  
H120     H      0.349610000000     0.500320000000     0.266320000000     0.0396918  
H121     H      0.243880000000     0.382280000000     0.428440000000     0.038419   
H122     H      0.241510000000     0.335150000000     0.474670000000     0.0421226  
H123     H      0.270980000000     0.350130000000     0.023360000000     0.0398369  
H124     H      0.224650000000     0.418920000000     0.439130000000     0.0404315  
H125     H      0.286560000000     0.415330000000     0.446400000000     0.0403357  
H126     H      0.263420000000     0.430490000000     0.978800000000     0.0383043  
H127     H      0.214360000000     0.343460000000     0.007020000000     0.03804    
H128     H      0.249280000000     0.387460000000     0.025390000000     0.0420817  
H129     H      0.498550000000     0.325380000000     0.473240000000     0.0384448  
H130     H      0.494050000000     0.326840000000     0.534450000000     0.0383924  
H131     H      0.521650000000     0.373810000000     0.055620000000     0.0436511  
H132     H      0.472770000000     0.350640000000     0.450160000000     0.0433476  
H133     H      0.528690000000     0.371360000000     0.453390000000     0.0435163  
H134     H      0.500050000000     0.398510000000     0.970310000000     0.0406626  
H135     H      0.465500000000     0.353520000000     0.052320000000     0.0427823  
H136     H      0.495750000000     0.400040000000     0.033780000000     0.0398658  
H137     H      0.350380000000     0.497600000000     0.963830000000     0.0392784  
H138     H      0.343560000000     0.500650000000     0.027070000000     0.0391968  
H139     H      0.381390000000     0.463090000000     0.049560000000     0.0431875  
H140     H      0.381780000000     0.521120000000     0.446420000000     0.0434696  
H141     H      0.396570000000     0.464380000000     0.448300000000     0.043482   
H142     H      0.422700000000     0.488030000000     0.472650000000     0.0397029  
H143     H      0.373230000000     0.523080000000     0.048390000000     0.0433597  
H144     H      0.414980000000     0.485380000000     0.534730000000     0.0386969  
H145     H      0.615830000000     0.746750000000     0.302720000000     0.0413795  
H146     H      0.570650000000     0.742340000000     0.257530000000     0.0384685  
H147     H      0.582680000000     0.783380000000     0.219890000000     0.0410841  
H148     H      0.652320000000     0.724550000000     0.295780000000     0.0400426  
H149     H      0.659430000000     0.783340000000     0.287440000000     0.0394799  
H150     H      0.666980000000     0.760560000000     0.251890000000     0.0417236  
H151     H      0.581690000000     0.722020000000     0.221770000000     0.040549   
H152     H      0.618370000000     0.763520000000     0.207020000000     0.0392059  
H153     H      0.678340000000     0.743870000000     0.502950000000     0.039163   
H154     H      0.631100000000     0.744720000000     0.048180000000     0.0412954  
H155     H      0.582930000000     0.772780000000     0.028930000000     0.0403755  
H156     H      0.670720000000     0.719170000000     0.469070000000     0.0411836  
H157     H      0.660100000000     0.779020000000     0.461620000000     0.040315   
H158     H      0.627530000000     0.752860000000     0.451780000000     0.0387231  
H159     H      0.598690000000     0.716800000000     0.041910000000     0.0399728  
H160     H      0.580820000000     0.746690000000     0.994810000000     0.0423565  
H161     H      0.584340000000     0.912660000000     0.368330000000     0.0387068  
H162     H      0.648010000000     0.916510000000     0.370890000000     0.0392915  
H163     H      0.670680000000     0.876650000000     0.406560000000     0.043387   
H164     H      0.567550000000     0.879340000000     0.347300000000     0.0432689  
H165     H      0.567440000000     0.873600000000     0.406870000000     0.0432027  
H166     H      0.587270000000     0.841810000000     0.386100000000     0.0396083  
H167     H      0.670610000000     0.887250000000     0.349180000000     0.0433871  
H168     H      0.652410000000     0.844770000000     0.384530000000     0.039142   
H169     H      0.654880000000     0.833880000000     0.122670000000     0.0386224  
H170     H      0.591770000000     0.837030000000     0.125170000000     0.038428   
H171     H      0.573200000000     0.883600000000     0.155400000000     0.0435434  
H172     H      0.675360000000     0.862230000000     0.097980000000     0.0431913  
H173     H      0.676370000000     0.875610000000     0.156330000000     0.0430573  
H174     H      0.659420000000     0.906320000000     0.131790000000     0.0393394  
H175     H      0.571910000000     0.865360000000     0.099910000000     0.0429868  
H176     H      0.595240000000     0.910000000000     0.129900000000     0.0401339  
H177     H      0.627670000000     0.251890000000     0.296870000000     0.0390432  
H178     H      0.579230000000     0.254570000000     0.253950000000     0.0415152  
H179     H      0.595180000000     0.282940000000     0.205080000000     0.0399747  
H180     H      0.661160000000     0.227230000000     0.286470000000     0.0407683  
H181     H      0.667840000000     0.287650000000     0.277070000000     0.0407222  
H182     H      0.676370000000     0.262170000000     0.244000000000     0.0387822  
H183     H      0.582190000000     0.227100000000     0.221030000000     0.0404481  
H184     H      0.628980000000     0.256410000000     0.200040000000     0.0417136  
H185     H      0.654390000000     0.999780000000     0.283490000000     0.0393286  
H186     H      0.589790000000     0.999820000000     0.283300000000     0.0397035  
H187     H      0.570410000000     0.034810000000     0.241240000000     0.0432482  
H188     H      0.673890000000     0.976650000000     0.253260000000     0.0433322  
H189     H      0.673890000000     0.035090000000     0.241880000000     0.0430563  
H190     H      0.654080000000     0.011940000000     0.211830000000     0.0390666  
H191     H      0.570460000000     0.976570000000     0.253020000000     0.0431934  
H192     H      0.590740000000     0.011640000000     0.211580000000     0.0388871  
H193     H      0.620780000000     0.254830000000     0.466690000000     0.0426034  
H194     H      0.574120000000     0.258670000000     0.514390000000     0.0382463  
H195     H      0.586750000000     0.213830000000     0.046540000000     0.0406635  
H196     H      0.656820000000     0.277200000000     0.475140000000     0.03844    
H197     H      0.665500000000     0.219050000000     0.481270000000     0.0399234  
H198     H      0.670610000000     0.239950000000     0.018460000000     0.0416549  
H199     H      0.588230000000     0.275900000000     0.050580000000     0.0406801  
H200     H      0.622540000000     0.232040000000     0.061350000000     0.0377241  
H201     H      0.649400000000     0.090990000000     0.368320000000     0.0399675  
H202     H      0.584730000000     0.095440000000     0.367200000000     0.0393824  
H203     H      0.569440000000     0.134070000000     0.407060000000     0.0432606  
H204     H      0.671240000000     0.120950000000     0.346910000000     0.04352    
H205     H      0.672600000000     0.130100000000     0.404770000000     0.043235   
H206     H      0.653730000000     0.162380000000     0.383880000000     0.0388147  
H207     H      0.568390000000     0.129610000000     0.347240000000     0.0429848  
H208     H      0.589670000000     0.165790000000     0.386630000000     0.039188   
H209     H      0.655630000000     0.162420000000     0.127870000000     0.0391185  
H210     H      0.591930000000     0.158730000000     0.125570000000     0.0388844  
H211     H      0.574330000000     0.109550000000     0.098640000000     0.0433323  
H212     H      0.675910000000     0.136250000000     0.154950000000     0.0433368  
H213     H      0.677500000000     0.117670000000     0.098080000000     0.043025   
H214     H      0.659710000000     0.089380000000     0.124830000000     0.0390052  
H215     H      0.572540000000     0.132050000000     0.152840000000     0.0432056  
H216     H      0.596660000000     0.085650000000     0.126200000000     0.0395091  
H217     H      0.652160000000     0.998670000000     0.463550000000     0.0391684  
H218     H      0.589070000000     0.000120000000     0.964110000000     0.0394931  
H219     H      0.569370000000     0.968030000000     0.008250000000     0.0433143  
H220     H      0.673280000000     0.024150000000     0.490670000000     0.0434661  
H221     H      0.672910000000     0.967580000000     0.508260000000     0.0433836  
H222     H      0.653160000000     0.993470000000     0.536060000000     0.0400061  
H223     H      0.569760000000     0.025700000000     0.992490000000     0.0433052  
H224     H      0.589290000000     0.993270000000     0.036470000000     0.0394127  
H225     H      0.247320000000     0.620180000000     0.181740000000     0.0384152  
H226     H      0.250250000000     0.571050000000     0.221060000000     0.0407412  
H227     H      0.281400000000     0.582710000000     0.269400000000     0.0394492  
H228     H      0.223970000000     0.654050000000     0.193800000000     0.0403285  
H229     H      0.284960000000     0.658740000000     0.201230000000     0.041226   
H230     H      0.261000000000     0.666780000000     0.235570000000     0.0392835  
H231     H      0.224390000000     0.572150000000     0.255460000000     0.0410984  
H232     H      0.255920000000     0.616470000000     0.278160000000     0.0417603  
H233     H      0.254610000000     0.574760000000     0.002390000000     0.0403277  
H234     H      0.250020000000     0.621920000000     0.046190000000     0.0384927  
H235     H      0.290900000000     0.659280000000     0.032070000000     0.0417351  
H236     H      0.231080000000     0.580270000000     0.466820000000     0.0399875  
H237     H      0.289310000000     0.589780000000     0.457390000000     0.0402551  
H238     H      0.265660000000     0.625190000000     0.450380000000     0.0419376  
H239     H      0.229050000000     0.657160000000     0.034070000000     0.0404324  
H240     H      0.270040000000     0.671240000000     0.496940000000     0.0386914  
H241     H      0.185400000000     0.652640000000     0.353010000000     0.0380017  
H242     H      0.179520000000     0.590950000000     0.355440000000     0.0375134  
H243     H      0.139510000000     0.573850000000     0.393630000000     0.0433171  
H244     H      0.154280000000     0.675250000000     0.333980000000     0.0430662  
H245     H      0.152530000000     0.675460000000     0.394060000000     0.042826   
H246     H      0.116210000000     0.662680000000     0.375170000000     0.0402403  
H247     H      0.146220000000     0.572640000000     0.335500000000     0.04289    
H248     H      0.108520000000     0.595630000000     0.373490000000     0.0413719  
H249     H      0.150480000000     0.586510000000     0.127390000000     0.0405433  
H250     H      0.151900000000     0.654750000000     0.126060000000     0.0401885  
H251     H      0.115280000000     0.673380000000     0.085250000000     0.0429288  
H252     H      0.114360000000     0.570740000000     0.144280000000     0.042859   
H253     H      0.116130000000     0.570500000000     0.084370000000     0.04301    
H254     H      0.082090000000     0.590410000000     0.101350000000     0.0376214  
H255     H      0.117350000000     0.672890000000     0.143970000000     0.0430327  
H256     H      0.082260000000     0.652520000000     0.103080000000     0.0380479  
H257     H      0.751460000000     0.645830000000     0.208390000000     0.0414278  
H258     H      0.752330000000     0.596340000000     0.250100000000     0.0408008  
H259     H      0.784830000000     0.611170000000     0.295640000000     0.0402747  
H260     H      0.724370000000     0.678040000000     0.218030000000     0.039142   
H261     H      0.782530000000     0.690240000000     0.230510000000     0.0403748  
H262     H      0.756420000000     0.692390000000     0.264630000000     0.0398729  
H263     H      0.726610000000     0.599780000000     0.283990000000     0.0413102  
H264     H      0.758320000000     0.643670000000     0.304830000000     0.0392456  
H265     H      0.000700000000     0.666930000000     0.214310000000     0.0394375  
H266     H      0.996180000000     0.603000000000     0.214700000000     0.0400862  
H267     H      0.029880000000     0.580740000000     0.256760000000     0.0434688  
H268     H      0.979730000000     0.688090000000     0.244970000000     0.0433301  
H269     H      0.038740000000     0.683420000000     0.254920000000     0.0431511  
H270     H      0.014630000000     0.665970000000     0.285670000000     0.0393343  
H271     H      0.971710000000     0.585360000000     0.245050000000     0.0432678  
H272     H      0.008690000000     0.603210000000     0.286330000000     0.0393508  
H273     H      0.765960000000     0.586750000000     0.510390000000     0.0410221  
H274     H      0.763230000000     0.632300000000     0.055060000000     0.0407921  
H275     H      0.789930000000     0.680400000000     0.035020000000     0.0394646  
H276     H      0.737850000000     0.589580000000     0.478260000000     0.0407169  
H277     H      0.793780000000     0.607150000000     0.463660000000     0.0402422  
H278     H      0.764080000000     0.637800000000     0.458680000000     0.0404212  
H279     H      0.733320000000     0.662970000000     0.049450000000     0.0395527  
H280     H      0.761610000000     0.683550000000     0.002770000000     0.0397579  
H281     H      0.855390000000     0.613160000000     0.372190000000     0.0393183  
H282     H      0.856140000000     0.679010000000     0.371030000000     0.0397238  
H283     H      0.895780000000     0.696040000000     0.409250000000     0.0431392  
H284     H      0.886420000000     0.593850000000     0.349750000000     0.0432977  
H285     H      0.897410000000     0.593100000000     0.407260000000     0.043019   
H286     H      0.927660000000     0.614140000000     0.385280000000     0.0388437  
H287     H      0.889000000000     0.696560000000     0.349790000000     0.0430294  
H288     H      0.927570000000     0.676970000000     0.387710000000     0.0381483  
H289     H      0.914930000000     0.668270000000     0.125520000000     0.0406287  
H290     H      0.907350000000     0.603630000000     0.123810000000     0.0397719  
H291     H      0.863150000000     0.590840000000     0.158870000000     0.043291   
H292     H      0.888600000000     0.691220000000     0.100740000000     0.0438223  
H293     H      0.872240000000     0.693490000000     0.156810000000     0.0431627  
H294     H      0.842120000000     0.675180000000     0.132390000000     0.0382951  
H295     H      0.874670000000     0.589190000000     0.100090000000     0.0429558  
H296     H      0.835410000000     0.613120000000     0.134980000000     0.0384659  
H297     H      0.012850000000     0.604650000000     0.031710000000     0.0395729  
H298     H      0.016450000000     0.667350000000     0.028450000000     0.0395163  
H299     H      0.041880000000     0.682560000000     0.478180000000     0.0431839  
H300     H      0.981320000000     0.584990000000     0.010290000000     0.0435487  
H301     H      0.033810000000     0.579740000000     0.982960000000     0.0432255  
H302     H      0.005320000000     0.601540000000     0.459420000000     0.0395464  
H303     H      0.987940000000     0.687860000000     0.503800000000     0.0431441  
H304     H      0.010570000000     0.663310000000     0.456070000000     0.0389212  
H305     H      0.367310000000     0.244710000000     0.194410000000     0.0404857  
H306     H      0.320720000000     0.252250000000     0.237290000000     0.0380923  
H307     H      0.335100000000     0.220200000000     0.282350000000     0.0412856  
H308     H      0.401670000000     0.270740000000     0.198150000000     0.0405348  
H309     H      0.413170000000     0.214910000000     0.216270000000     0.0391613  
H310     H      0.417820000000     0.243920000000     0.247630000000     0.0420023  
H311     H      0.328300000000     0.279530000000     0.269210000000     0.0407889  
H312     H      0.368780000000     0.245160000000     0.291290000000     0.0400782  
H313     H      0.414920000000     0.244190000000     0.002440000000     0.0407808  
H314     H      0.366710000000     0.243110000000     0.046910000000     0.0404073  
H315     H      0.324040000000     0.275600000000     0.025750000000     0.0392673  
H316     H      0.410880000000     0.215340000000     0.470870000000     0.0393662  
H317     H      0.396640000000     0.271020000000     0.453610000000     0.0399816  
H318     H      0.363430000000     0.243500000000     0.450110000000     0.040712   
H319     H      0.334040000000     0.216640000000     0.038550000000     0.0405252  
H320     H      0.317460000000     0.248160000000     0.493700000000     0.0383837  
H321     H      0.346940000000     0.162290000000     0.383560000000     0.0385567  
H322     H      0.410020000000     0.162290000000     0.383680000000     0.0388015  
H323     H      0.430070000000     0.118180000000     0.415920000000     0.043555   
H324     H      0.326750000000     0.133940000000     0.358690000000     0.0433873  
H325     H      0.326630000000     0.118450000000     0.415870000000     0.0432797  
H326     H      0.346080000000     0.089500000000     0.391030000000     0.039925   
H327     H      0.430220000000     0.133790000000     0.358840000000     0.0431797  
H328     H      0.410490000000     0.089440000000     0.390990000000     0.0398118  
H329     H      0.346050000000     0.153660000000     0.132090000000     0.0389243  
H330     H      0.410670000000     0.154100000000     0.132210000000     0.03914    
H331     H      0.430230000000     0.111820000000     0.166980000000     0.0431895  
H332     H      0.326890000000     0.123250000000     0.108890000000     0.0433377  
H333     H      0.326830000000     0.111390000000     0.166930000000     0.0431037  
H334     H      0.346910000000     0.081450000000     0.143810000000     0.039226   
H335     H      0.430230000000     0.123850000000     0.108990000000     0.0428016  
H336     H      0.410430000000     0.081800000000     0.143750000000     0.0391961  
H337     H      0.334620000000     0.740450000000     0.256170000000     0.0388366  
H338     H      0.382260000000     0.747000000000     0.211820000000     0.0414203  
H339     H      0.428330000000     0.776750000000     0.233430000000     0.0400872  
H340     H      0.343450000000     0.714320000000     0.288650000000     0.0413248  
H341     H      0.350000000000     0.774270000000     0.299590000000     0.040736   
H342     H      0.383920000000     0.749650000000     0.308720000000     0.0389709  
H343     H      0.416220000000     0.720730000000     0.216930000000     0.0397809  
H344     H      0.431770000000     0.748810000000     0.265920000000     0.0412511  
H345     H      0.350620000000     0.990090000000     0.233840000000     0.0397689  
H346     H      0.415480000000     0.992480000000     0.235250000000     0.0398661  
H347     H      0.432750000000     0.028270000000     0.277620000000     0.0432503  
H348     H      0.331590000000     0.966480000000     0.263990000000     0.0432583  
H349     H      0.329360000000     0.025040000000     0.274970000000     0.0431899  
H350     H      0.349500000000     0.002740000000     0.305410000000     0.0388703  
H351     H      0.434900000000     0.970010000000     0.266020000000     0.0433651  
H352     H      0.412480000000     0.004530000000     0.306890000000     0.0390582  
H353     H      0.346070000000     0.750590000000     0.501300000000     0.0419278  
H354     H      0.394370000000     0.750220000000     0.046980000000     0.0393745  
H355     H      0.432110000000     0.710730000000     0.029420000000     0.0406708  
H356     H      0.354220000000     0.775900000000     0.467640000000     0.0387274  
H357     H      0.361650000000     0.717510000000     0.455580000000     0.0396522  
H358     H      0.397920000000     0.740500000000     0.450280000000     0.0412778  
H359     H      0.429890000000     0.771520000000     0.036110000000     0.0410856  
H360     H      0.442750000000     0.733920000000     0.995290000000     0.0398326  
H361     H      0.422930000000     0.913190000000     0.399690000000     0.0385918  
H362     H      0.360070000000     0.915560000000     0.398000000000     0.0390366  
H363     H      0.337510000000     0.874470000000     0.363490000000     0.0433896  
H364     H      0.441260000000     0.881240000000     0.421540000000     0.0432007  
H365     H      0.440730000000     0.873240000000     0.362220000000     0.0433937  
H366     H      0.421920000000     0.841710000000     0.384220000000     0.0399915  
H367     H      0.338010000000     0.886770000000     0.420790000000     0.0433051  
H368     H      0.356310000000     0.843410000000     0.386220000000     0.0396235  
H369     H      0.416560000000     0.826810000000     0.136870000000     0.0379498  
H370     H      0.353920000000     0.824100000000     0.134640000000     0.0383897  
H371     H      0.332910000000     0.864130000000     0.170410000000     0.0431466  
H372     H      0.436650000000     0.855830000000     0.112650000000     0.043035   
H373     H      0.435940000000     0.871510000000     0.169010000000     0.0432416  
H374     H      0.414490000000     0.899560000000     0.144770000000     0.0406766  
H375     H      0.333250000000     0.853540000000     0.111370000000     0.0429258  
H376     H      0.349160000000     0.896040000000     0.147020000000     0.0394618  
H377     H      0.414730000000     0.989750000000     0.060130000000     0.038531   
H378     H      0.352100000000     0.987950000000     0.059910000000     0.038632   
H379     H      0.330620000000     0.021550000000     0.517900000000     0.0432576  
H380     H      0.435870000000     0.966870000000     0.030810000000     0.0428289  
H381     H      0.433780000000     0.025350000000     0.018780000000     0.0434741  
H382     H      0.416200000000     0.001040000000     0.488350000000     0.0401444  
H383     H      0.332520000000     0.963490000000     0.530770000000     0.0431774  
H384     H      0.350520000000     0.998380000000     0.487960000000     0.0400344  
H385     H      0.905950000000     0.416000000000     0.869080000000     0.0399487  
H386     H      0.904540000000     0.351020000000     0.869380000000     0.0401351  
H387     H      0.861460000000     0.333290000000     0.904230000000     0.04322    
H388     H      0.875830000000     0.435570000000     0.845700000000     0.0434336  
H389     H      0.863770000000     0.436350000000     0.903510000000     0.0428129  
H390     H      0.833380000000     0.416590000000     0.880460000000     0.0384118  
H391     H      0.873390000000     0.332610000000     0.846310000000     0.0431566  
H392     H      0.832100000000     0.354030000000     0.880920000000     0.0379127  
H393     H      0.847520000000     0.350240000000     0.617610000000     0.0396836  
H394     H      0.845070000000     0.415400000000     0.617940000000     0.0394571  
H395     H      0.885480000000     0.435770000000     0.654230000000     0.0431209  
H396     H      0.879850000000     0.332750000000     0.595440000000     0.0431452  
H397     H      0.889380000000     0.332810000000     0.653820000000     0.0432144  
H398     H      0.919470000000     0.354090000000     0.631860000000     0.0386998  
H399     H      0.875850000000     0.435560000000     0.595940000000     0.0435949  
H400     H      0.917070000000     0.416980000000     0.632110000000     0.0386995  
H401     H      0.995720000000     0.351850000000     0.703700000000     0.0399133  
H402     H      0.994550000000     0.414880000000     0.701120000000     0.0398954  
H403     H      0.975170000000     0.436940000000     0.751720000000     0.0431288  
H404     H      0.027830000000     0.333220000000     0.725270000000     0.043261   
H405     H      0.976650000000     0.333780000000     0.755920000000     0.0432152  
H406     H      0.007990000000     0.355820000000     0.775300000000     0.0388741  
H407     H      0.026030000000     0.436440000000     0.720750000000     0.0434773  
H408     H      0.007170000000     0.417460000000     0.772710000000     0.0391114  
H409     H      0.092400000000     0.348830000000     0.830980000000     0.0387666  
H410     H      0.091120000000     0.413730000000     0.834190000000     0.0400701  
H411     H      0.131540000000     0.433800000000     0.871180000000     0.0434226  
H412     H      0.126370000000     0.331650000000     0.811220000000     0.0431927  
H413     H      0.129380000000     0.330790000000     0.871060000000     0.043066   
H414     H      0.162700000000     0.349820000000     0.851790000000     0.0388227  
H415     H      0.122670000000     0.434460000000     0.813670000000     0.0430044  
H416     H      0.162800000000     0.413290000000     0.850130000000     0.0384159  
H417     H      0.087220000000     0.423890000000     0.599280000000     0.038926   
H418     H      0.080530000000     0.361320000000     0.598420000000     0.0392115  
H419     H      0.119940000000     0.335680000000     0.563970000000     0.0431172  
H420     H      0.120760000000     0.440090000000     0.620710000000     0.0431785  
H421     H      0.128550000000     0.438370000000     0.561630000000     0.0434903  
H422     H      0.158610000000     0.417100000000     0.583610000000     0.0394901  
H423     H      0.108130000000     0.337730000000     0.621190000000     0.043549   
H424     H      0.152420000000     0.352920000000     0.586140000000     0.0390604  
H425     H      0.998920000000     0.354910000000     0.014190000000     0.039018   
H426     H      0.997070000000     0.419340000000     0.515920000000     0.0393649  
H427     H      0.026760000000     0.438800000000     0.470440000000     0.0429212  
H428     H      0.970460000000     0.335470000000     0.988700000000     0.0432615  
H429     H      0.024740000000     0.335940000000     0.965310000000     0.0439224  
H430     H      0.996560000000     0.357760000000     0.941550000000     0.0397421  
H431     H      0.969320000000     0.438400000000     0.489520000000     0.0430881  
H432     H      0.998970000000     0.420780000000     0.443300000000     0.0390575  
H433     H      0.742770000000     0.434310000000     0.736030000000     0.0383844  
H434     H      0.748570000000     0.387730000000     0.692300000000     0.0414126  
H435     H      0.784130000000     0.344740000000     0.710910000000     0.0394428  
H436     H      0.719980000000     0.424870000000     0.770810000000     0.040134   
H437     H      0.781020000000     0.422630000000     0.776880000000     0.0409923  
H438     H      0.759700000000     0.387510000000     0.788810000000     0.0391496  
H439     H      0.725460000000     0.351930000000     0.699480000000     0.0399321  
H440     H      0.759280000000     0.338370000000     0.745380000000     0.0413731  
H441     H      0.667180000000     0.502440000000     0.769610000000     0.0385322  
H442     H      0.670400000000     0.509470000000     0.708010000000     0.0385877  
H443     H      0.626690000000     0.478610000000     0.685860000000     0.0431591  
H444     H      0.641960000000     0.529060000000     0.791770000000     0.0432285  
H445     H      0.617070000000     0.476310000000     0.787900000000     0.0439029  
H446     H      0.593790000000     0.505150000000     0.766420000000     0.0407985  
H447     H      0.643170000000     0.537050000000     0.689610000000     0.0430629  
H448     H      0.597280000000     0.504420000000     0.703450000000     0.0391133  
H449     H      0.742600000000     0.326330000000     0.014110000000     0.0375331  
H450     H      0.744230000000     0.371760000000     0.558950000000     0.0411543  
H451     H      0.776170000000     0.417640000000     0.540980000000     0.038747   
H452     H      0.717630000000     0.333790000000     0.980250000000     0.0384508  
H453     H      0.777360000000     0.342790000000     0.971460000000     0.0408731  
H454     H      0.752280000000     0.376310000000     0.962380000000     0.0402602  
H455     H      0.717970000000     0.405560000000     0.552940000000     0.0385495  
H456     H      0.750030000000     0.423480000000     0.507360000000     0.0416619  
H457     H      0.669120000000     0.500000000000     0.543600000000     0.0388629  
H458     H      0.671920000000     0.498830000000     0.981250000000     0.038974   
H459     H      0.626770000000     0.468900000000     0.959430000000     0.0434012  
H460     H      0.640900000000     0.526730000000     0.561850000000     0.0433181  
H461     H      0.622490000000     0.470020000000     0.561760000000     0.0434767  
H462     H      0.595780000000     0.496280000000     0.540860000000     0.0397563  
H463     H      0.645940000000     0.525130000000     0.959550000000     0.0431808  
H464     H      0.598630000000     0.495760000000     0.977530000000     0.0401321  
H465     H      0.496660000000     0.654400000000     0.780900000000     0.039594   
H466     H      0.500570000000     0.653610000000     0.716570000000     0.0393455  
H467     H      0.535570000000     0.610090000000     0.698580000000     0.0432978  
H468     H      0.473650000000     0.622940000000     0.798760000000     0.0434196  
H469     H      0.533340000000     0.614200000000     0.800880000000     0.0431584  
H470     H      0.511580000000     0.582760000000     0.781440000000     0.0384976  
H471     H      0.477980000000     0.623170000000     0.696520000000     0.043459   
H472     H      0.511670000000     0.581330000000     0.719530000000     0.0391132  
H473     H      0.521990000000     0.652360000000     0.969870000000     0.0396152  
H474     H      0.516770000000     0.647280000000     0.534280000000     0.0390714  
H475     H      0.481060000000     0.603110000000     0.548140000000     0.0434355  
H476     H      0.545680000000     0.622240000000     0.950740000000     0.0432338  
H477     H      0.486070000000     0.613450000000     0.946530000000     0.0432659  
H478     H      0.507570000000     0.580830000000     0.964200000000     0.0390232  
H479     H      0.538970000000     0.615380000000     0.552390000000     0.0431567  
H480     H      0.505510000000     0.575360000000     0.526520000000     0.0392226  
H481     H      0.254200000000     0.382760000000     0.765170000000     0.0422449  
H482     H      0.258670000000     0.334570000000     0.720210000000     0.0386189  
H483     H      0.219750000000     0.348120000000     0.680760000000     0.0410005  
H484     H      0.278700000000     0.417300000000     0.756980000000     0.0387556  
H485     H      0.220530000000     0.426950000000     0.745820000000     0.0402443  
H486     H      0.245200000000     0.431090000000     0.710860000000     0.0414878  
H487     H      0.281090000000     0.344740000000     0.685490000000     0.0413829  
H488     H      0.241860000000     0.382680000000     0.668620000000     0.0384995  
H489     H      0.503490000000     0.402450000000     0.708870000000     0.0415759  
H490     H      0.506020000000     0.400630000000     0.774080000000     0.0393592  
H491     H      0.469590000000     0.358630000000     0.789220000000     0.0427737  
H492     H      0.529570000000     0.375180000000     0.688470000000     0.0437622  
H493     H      0.474230000000     0.356040000000     0.687030000000     0.0432681  
H494     H      0.499320000000     0.329360000000     0.709250000000     0.038035   
H495     H      0.529880000000     0.369080000000     0.790470000000     0.0431022  
H496     H      0.494030000000     0.328570000000     0.770830000000     0.0382555  
H497     H      0.417700000000     0.488610000000     0.698010000000     0.0386785  
H498     H      0.421880000000     0.488490000000     0.760370000000     0.0393466  
H499     H      0.381170000000     0.521990000000     0.785730000000     0.0434806  
H500     H      0.384230000000     0.468220000000     0.680460000000     0.0430522  
H501     H      0.378560000000     0.528530000000     0.683840000000     0.04319    
H502     H      0.346560000000     0.506340000000     0.701780000000     0.0394161  
H503     H      0.393670000000     0.464790000000     0.782250000000     0.0435788  
H504     H      0.349610000000     0.500320000000     0.766330000000     0.0396791  
H505     H      0.243880000000     0.382280000000     0.928440000000     0.0383761  
H506     H      0.241510000000     0.335150000000     0.974670000000     0.0417574  
H507     H      0.270980000000     0.350130000000     0.523360000000     0.0395248  
H508     H      0.224650000000     0.418920000000     0.939120000000     0.0404378  
H509     H      0.286560000000     0.415330000000     0.946390000000     0.040365   
H510     H      0.263420000000     0.430490000000     0.478800000000     0.0379905  
H511     H      0.214360000000     0.343460000000     0.507020000000     0.0394751  
H512     H      0.249280000000     0.387460000000     0.525390000000     0.0418323  
H513     H      0.498550000000     0.325380000000     0.973250000000     0.0386597  
H514     H      0.494050000000     0.326840000000     0.034450000000     0.038194   
H515     H      0.521650000000     0.373810000000     0.555620000000     0.0436281  
H516     H      0.472770000000     0.350640000000     0.950160000000     0.0432285  
H517     H      0.528690000000     0.371360000000     0.953380000000     0.0434707  
H518     H      0.500050000000     0.398510000000     0.470310000000     0.0405197  
H519     H      0.465500000000     0.353520000000     0.552320000000     0.0428607  
H520     H      0.495750000000     0.400040000000     0.533780000000     0.0400692  
H521     H      0.350380000000     0.497600000000     0.463830000000     0.0391413  
H522     H      0.343560000000     0.500650000000     0.527070000000     0.0394025  
H523     H      0.381390000000     0.463090000000     0.549560000000     0.0431599  
H524     H      0.381780000000     0.521120000000     0.946420000000     0.0434407  
H525     H      0.396570000000     0.464380000000     0.948300000000     0.0434918  
H526     H      0.422700000000     0.488030000000     0.972650000000     0.0399382  
H527     H      0.373230000000     0.523080000000     0.548390000000     0.0433244  
H528     H      0.414980000000     0.485380000000     0.034730000000     0.0385314  
H529     H      0.615830000000     0.746750000000     0.802720000000     0.0413891  
H530     H      0.570650000000     0.742340000000     0.757530000000     0.0384657  
H531     H      0.582680000000     0.783380000000     0.719890000000     0.0410861  
H532     H      0.652320000000     0.724550000000     0.795780000000     0.0400525  
H533     H      0.659430000000     0.783340000000     0.787450000000     0.0394845  
H534     H      0.666980000000     0.760560000000     0.751890000000     0.0417288  
H535     H      0.581690000000     0.722020000000     0.721770000000     0.0405433  
H536     H      0.618370000000     0.763520000000     0.707020000000     0.039211   
H537     H      0.678340000000     0.743870000000     0.002950000000     0.0378654  
H538     H      0.631100000000     0.744720000000     0.548180000000     0.0415291  
H539     H      0.582930000000     0.772780000000     0.528930000000     0.0400629  
H540     H      0.670720000000     0.719170000000     0.969070000000     0.0409262  
H541     H      0.660100000000     0.779020000000     0.961610000000     0.0406132  
H542     H      0.627530000000     0.752860000000     0.951790000000     0.0389643  
H543     H      0.598690000000     0.716800000000     0.541910000000     0.0402113  
H544     H      0.580820000000     0.746690000000     0.494810000000     0.0409832  
H545     H      0.584340000000     0.912660000000     0.868330000000     0.0387667  
H546     H      0.648010000000     0.916510000000     0.870890000000     0.0393643  
H547     H      0.670680000000     0.876650000000     0.906560000000     0.0435272  
H548     H      0.567550000000     0.879340000000     0.847300000000     0.0432978  
H549     H      0.567440000000     0.873600000000     0.906880000000     0.0433269  
H550     H      0.587270000000     0.841810000000     0.886100000000     0.0396568  
H551     H      0.670610000000     0.887250000000     0.849180000000     0.0434359  
H552     H      0.652410000000     0.844770000000     0.884530000000     0.0392023  
H553     H      0.654880000000     0.833880000000     0.622670000000     0.038654   
H554     H      0.591770000000     0.837030000000     0.625170000000     0.0384447  
H555     H      0.573200000000     0.883600000000     0.655400000000     0.0435453  
H556     H      0.675360000000     0.862230000000     0.597980000000     0.043256   
H557     H      0.676370000000     0.875610000000     0.656330000000     0.0430846  
H558     H      0.659420000000     0.906320000000     0.631790000000     0.039369   
H559     H      0.571910000000     0.865360000000     0.599910000000     0.0430152  
H560     H      0.595240000000     0.910000000000     0.629900000000     0.0401455  
H561     H      0.627670000000     0.251890000000     0.796860000000     0.0390922  
H562     H      0.579230000000     0.254570000000     0.753940000000     0.0415387  
H563     H      0.595180000000     0.282940000000     0.705080000000     0.0399665  
H564     H      0.661160000000     0.227230000000     0.786460000000     0.0408169  
H565     H      0.667840000000     0.287650000000     0.777070000000     0.0407319  
H566     H      0.676370000000     0.262170000000     0.744000000000     0.0387909  
H567     H      0.582190000000     0.227100000000     0.721030000000     0.0404699  
H568     H      0.628980000000     0.256410000000     0.700040000000     0.0417134  
H569     H      0.654390000000     0.999780000000     0.783490000000     0.0393582  
H570     H      0.589790000000     0.999820000000     0.783300000000     0.0397028  
H571     H      0.570410000000     0.034810000000     0.741240000000     0.0432631  
H572     H      0.673890000000     0.976650000000     0.753260000000     0.0433639  
H573     H      0.673890000000     0.035090000000     0.741880000000     0.0430874  
H574     H      0.654080000000     0.011940000000     0.711830000000     0.0390894  
H575     H      0.570460000000     0.976570000000     0.753020000000     0.043184   
H576     H      0.590740000000     0.011640000000     0.711590000000     0.0389146  
H577     H      0.620780000000     0.254830000000     0.966690000000     0.0424179  
H578     H      0.574120000000     0.258670000000     0.014390000000     0.0379613  
H579     H      0.586750000000     0.213830000000     0.546540000000     0.040644   
H580     H      0.656820000000     0.277200000000     0.975130000000     0.0382162  
H581     H      0.665500000000     0.219050000000     0.981270000000     0.0413825  
H582     H      0.670610000000     0.239950000000     0.518460000000     0.0412847  
H583     H      0.588230000000     0.275900000000     0.550580000000     0.0407162  
H584     H      0.622540000000     0.232040000000     0.561350000000     0.0376517  
H585     H      0.649400000000     0.090990000000     0.868320000000     0.040012   
H586     H      0.584730000000     0.095440000000     0.867190000000     0.0394212  
H587     H      0.569440000000     0.134070000000     0.907060000000     0.0433792  
H588     H      0.671240000000     0.120950000000     0.846910000000     0.0435716  
H589     H      0.672600000000     0.130100000000     0.904760000000     0.0433497  
H590     H      0.653730000000     0.162380000000     0.883880000000     0.0388966  
H591     H      0.568390000000     0.129610000000     0.847240000000     0.0430097  
H592     H      0.589670000000     0.165790000000     0.886640000000     0.0392785  
H593     H      0.655630000000     0.162420000000     0.627870000000     0.0391395  
H594     H      0.591930000000     0.158730000000     0.625570000000     0.0388874  
H595     H      0.574330000000     0.109550000000     0.598640000000     0.0433828  
H596     H      0.675910000000     0.136250000000     0.654950000000     0.043367   
H597     H      0.677500000000     0.117670000000     0.598080000000     0.0430956  
H598     H      0.659710000000     0.089380000000     0.624830000000     0.039049   
H599     H      0.572540000000     0.132050000000     0.652840000000     0.0432051  
H600     H      0.596660000000     0.085650000000     0.626200000000     0.0395429  
H601     H      0.652160000000     0.998670000000     0.963550000000     0.0391639  
H602     H      0.589070000000     0.000120000000     0.464110000000     0.0395058  
H603     H      0.569370000000     0.968030000000     0.508250000000     0.0433377  
H604     H      0.673280000000     0.024150000000     0.990670000000     0.0435696  
H605     H      0.672910000000     0.967580000000     0.008260000000     0.0433513  
H606     H      0.653160000000     0.993470000000     0.036060000000     0.0400518  
H607     H      0.569760000000     0.025700000000     0.492490000000     0.0431844  
H608     H      0.589290000000     0.993270000000     0.536470000000     0.0393513  
H609     H      0.247320000000     0.620180000000     0.681740000000     0.0384374  
H610     H      0.250250000000     0.571050000000     0.721060000000     0.0407483  
H611     H      0.281400000000     0.582710000000     0.769400000000     0.0394478  
H612     H      0.223970000000     0.654050000000     0.693800000000     0.0403534  
H613     H      0.284960000000     0.658740000000     0.701230000000     0.0412401  
H614     H      0.261000000000     0.666780000000     0.735570000000     0.0392942  
H615     H      0.224390000000     0.572150000000     0.755460000000     0.0410979  
H616     H      0.255920000000     0.616470000000     0.778160000000     0.0417619  
H617     H      0.254610000000     0.574760000000     0.502390000000     0.0417036  
H618     H      0.250020000000     0.621920000000     0.546190000000     0.0387662  
H619     H      0.290900000000     0.659280000000     0.532070000000     0.0414322  
H620     H      0.231080000000     0.580270000000     0.966830000000     0.0396064  
H621     H      0.289310000000     0.589780000000     0.957390000000     0.040459   
H622     H      0.265660000000     0.625190000000     0.950380000000     0.0421069  
H623     H      0.229050000000     0.657160000000     0.534070000000     0.0409167  
H624     H      0.270040000000     0.671240000000     0.996940000000     0.0400234  
H625     H      0.185400000000     0.652640000000     0.853010000000     0.0380206  
H626     H      0.179520000000     0.590950000000     0.855440000000     0.0375219  
H627     H      0.139510000000     0.573850000000     0.893630000000     0.0433492  
H628     H      0.154280000000     0.675250000000     0.833980000000     0.0431048  
H629     H      0.152530000000     0.675460000000     0.894060000000     0.0428882  
H630     H      0.116210000000     0.662680000000     0.875170000000     0.0402783  
H631     H      0.146220000000     0.572640000000     0.835500000000     0.0428926  
H632     H      0.108520000000     0.595630000000     0.873490000000     0.0413843  
H633     H      0.150480000000     0.586510000000     0.627390000000     0.040589   
H634     H      0.151900000000     0.654750000000     0.626060000000     0.0402391  
H635     H      0.115280000000     0.673380000000     0.585250000000     0.0430535  
H636     H      0.114360000000     0.570740000000     0.644280000000     0.0428831  
H637     H      0.116130000000     0.570500000000     0.584370000000     0.0431334  
H638     H      0.082090000000     0.590410000000     0.601350000000     0.0376998  
H639     H      0.117350000000     0.672890000000     0.643970000000     0.0430727  
H640     H      0.082260000000     0.652520000000     0.603080000000     0.0381188  
H641     H      0.751460000000     0.645830000000     0.708390000000     0.0414233  
H642     H      0.752330000000     0.596340000000     0.750100000000     0.0408134  
H643     H      0.784830000000     0.611170000000     0.795640000000     0.0402846  
H644     H      0.724370000000     0.678040000000     0.718030000000     0.0391378  
H645     H      0.782530000000     0.690240000000     0.730510000000     0.040395   
H646     H      0.756420000000     0.692390000000     0.764630000000     0.0398957  
H647     H      0.726610000000     0.599780000000     0.783990000000     0.041323   
H648     H      0.758320000000     0.643670000000     0.804830000000     0.0392633  
H649     H      0.000700000000     0.666930000000     0.714310000000     0.039453   
H650     H      0.996180000000     0.603000000000     0.714690000000     0.040098   
H651     H      0.029880000000     0.580740000000     0.756760000000     0.0434598  
H652     H      0.979730000000     0.688090000000     0.744970000000     0.0433596  
H653     H      0.038740000000     0.683420000000     0.754920000000     0.0431837  
H654     H      0.014630000000     0.665970000000     0.785670000000     0.0393574  
H655     H      0.971710000000     0.585360000000     0.745050000000     0.0432764  
H656     H      0.008690000000     0.603210000000     0.786330000000     0.0393413  
H657     H      0.765960000000     0.586750000000     0.010380000000     0.0397009  
H658     H      0.763230000000     0.632300000000     0.555060000000     0.040919   
H659     H      0.789930000000     0.680400000000     0.535020000000     0.0393128  
H660     H      0.737850000000     0.589580000000     0.978260000000     0.0404613  
H661     H      0.793780000000     0.607150000000     0.963660000000     0.0406145  
H662     H      0.764080000000     0.637800000000     0.958680000000     0.0407873  
H663     H      0.733320000000     0.662970000000     0.549450000000     0.0396261  
H664     H      0.761610000000     0.683550000000     0.502770000000     0.0398919  
H665     H      0.855390000000     0.613160000000     0.872190000000     0.0393586  
H666     H      0.856140000000     0.679010000000     0.871030000000     0.0397973  
H667     H      0.895780000000     0.696040000000     0.909250000000     0.0433071  
H668     H      0.886420000000     0.593850000000     0.849750000000     0.0433151  
H669     H      0.897410000000     0.593100000000     0.907250000000     0.0431033  
H670     H      0.927660000000     0.614140000000     0.885270000000     0.0389043  
H671     H      0.889000000000     0.696560000000     0.849790000000     0.0430863  
H672     H      0.927570000000     0.676970000000     0.887710000000     0.0382425  
H673     H      0.914930000000     0.668270000000     0.625520000000     0.0406546  
H674     H      0.907350000000     0.603630000000     0.623810000000     0.0397933  
H675     H      0.863150000000     0.590840000000     0.658870000000     0.0432972  
H676     H      0.888600000000     0.691220000000     0.600740000000     0.0438753  
H677     H      0.872240000000     0.693490000000     0.656810000000     0.0431947  
H678     H      0.842120000000     0.675180000000     0.632390000000     0.0383197  
H679     H      0.874670000000     0.589190000000     0.600090000000     0.0430164  
H680     H      0.835410000000     0.613120000000     0.634980000000     0.0384859  
H681     H      0.012850000000     0.604650000000     0.531710000000     0.0395292  
H682     H      0.016450000000     0.667350000000     0.528440000000     0.0395091  
H683     H      0.041880000000     0.682560000000     0.978180000000     0.0432355  
H684     H      0.981320000000     0.584990000000     0.510290000000     0.0435861  
H685     H      0.033810000000     0.579740000000     0.482960000000     0.0431957  
H686     H      0.005320000000     0.601540000000     0.959420000000     0.0395008  
H687     H      0.987940000000     0.687860000000     0.003800000000     0.0430805  
H688     H      0.010570000000     0.663310000000     0.956070000000     0.0388942  
H689     H      0.367310000000     0.244710000000     0.694410000000     0.0404928  
H690     H      0.320720000000     0.252250000000     0.737280000000     0.0381192  
H691     H      0.335100000000     0.220200000000     0.782350000000     0.0412719  
H692     H      0.401670000000     0.270740000000     0.698150000000     0.0405362  
H693     H      0.413170000000     0.214910000000     0.716270000000     0.0391599  
H694     H      0.417820000000     0.243920000000     0.747630000000     0.0420017  
H695     H      0.328300000000     0.279530000000     0.769200000000     0.0408187  
H696     H      0.368780000000     0.245160000000     0.791290000000     0.0400542  
H697     H      0.414920000000     0.244190000000     0.502440000000     0.042075   
H698     H      0.366710000000     0.243110000000     0.546910000000     0.0405963  
H699     H      0.324040000000     0.275600000000     0.525750000000     0.0389976  
H700     H      0.410880000000     0.215340000000     0.970870000000     0.0391979  
H701     H      0.396640000000     0.271020000000     0.953610000000     0.0401953  
H702     H      0.363430000000     0.243500000000     0.950110000000     0.0409393  
H703     H      0.334040000000     0.216640000000     0.538560000000     0.0407855  
H704     H      0.317460000000     0.248160000000     0.993700000000     0.0397378  
H705     H      0.346940000000     0.162290000000     0.883560000000     0.0386231  
H706     H      0.410020000000     0.162290000000     0.883680000000     0.038864   
H707     H      0.430070000000     0.118180000000     0.915920000000     0.043693   
H708     H      0.326750000000     0.133940000000     0.858690000000     0.0434412  
H709     H      0.326630000000     0.118450000000     0.915870000000     0.0434335  
H710     H      0.346080000000     0.089500000000     0.891030000000     0.0400189  
H711     H      0.430220000000     0.133790000000     0.858840000000     0.0432109  
H712     H      0.410490000000     0.089440000000     0.890990000000     0.0398897  
H713     H      0.346050000000     0.153660000000     0.632090000000     0.0389445  
H714     H      0.410670000000     0.154100000000     0.632210000000     0.0391486  
H715     H      0.430230000000     0.111820000000     0.666980000000     0.0431925  
H716     H      0.326890000000     0.123250000000     0.608890000000     0.0433844  
H717     H      0.326830000000     0.111390000000     0.666930000000     0.0431304  
H718     H      0.346910000000     0.081450000000     0.643810000000     0.0392428  
H719     H      0.430230000000     0.123850000000     0.608990000000     0.0428256  
H720     H      0.410430000000     0.081800000000     0.643750000000     0.0391992  
H721     H      0.334620000000     0.740450000000     0.756170000000     0.0388733  
H722     H      0.382260000000     0.747000000000     0.711820000000     0.0414194  
H723     H      0.428330000000     0.776750000000     0.733430000000     0.04009    
H724     H      0.343450000000     0.714320000000     0.788650000000     0.0413551  
H725     H      0.350000000000     0.774270000000     0.799590000000     0.0407125  
H726     H      0.383920000000     0.749650000000     0.808730000000     0.0389258  
H727     H      0.416220000000     0.720730000000     0.716930000000     0.0397729  
H728     H      0.431770000000     0.748810000000     0.765920000000     0.0412538  
H729     H      0.350620000000     0.990090000000     0.733840000000     0.0397831  
H730     H      0.415480000000     0.992480000000     0.735250000000     0.0398645  
H731     H      0.432750000000     0.028270000000     0.777620000000     0.0432599  
H732     H      0.331590000000     0.966480000000     0.763990000000     0.0432914  
H733     H      0.329360000000     0.025040000000     0.774980000000     0.0432168  
H734     H      0.349500000000     0.002740000000     0.805420000000     0.0388956  
H735     H      0.434900000000     0.970010000000     0.766030000000     0.0433681  
H736     H      0.412480000000     0.004530000000     0.806890000000     0.0390868  
H737     H      0.346070000000     0.750590000000     0.001300000000     0.0406083  
H738     H      0.394370000000     0.750220000000     0.546980000000     0.039574   
H739     H      0.432110000000     0.710730000000     0.529420000000     0.0403844  
H740     H      0.354220000000     0.775900000000     0.967640000000     0.038531   
H741     H      0.361650000000     0.717510000000     0.955580000000     0.0398913  
H742     H      0.397920000000     0.740500000000     0.950270000000     0.0415057  
H743     H      0.429890000000     0.771520000000     0.536110000000     0.0413649  
H744     H      0.442750000000     0.733920000000     0.495290000000     0.038481   
H745     H      0.422930000000     0.913190000000     0.899690000000     0.0386845  
H746     H      0.360070000000     0.915560000000     0.898000000000     0.0391312  
H747     H      0.337510000000     0.874470000000     0.863490000000     0.0434496  
H748     H      0.441260000000     0.881240000000     0.921540000000     0.04335    
H749     H      0.440730000000     0.873240000000     0.862220000000     0.0434239  
H750     H      0.421920000000     0.841710000000     0.884220000000     0.0400508  
H751     H      0.338010000000     0.886770000000     0.920790000000     0.0434733  
H752     H      0.356310000000     0.843410000000     0.886210000000     0.0397042  
H753     H      0.416560000000     0.826810000000     0.636870000000     0.0379573  
H754     H      0.353920000000     0.824100000000     0.634640000000     0.0384046  
H755     H      0.332910000000     0.864130000000     0.670410000000     0.0431751  
H756     H      0.436650000000     0.855830000000     0.612650000000     0.0430557  
H757     H      0.435940000000     0.871510000000     0.669010000000     0.0432439  
H758     H      0.414490000000     0.899560000000     0.644770000000     0.0406815  
H759     H      0.333250000000     0.853540000000     0.611370000000     0.042963   
H760     H      0.349160000000     0.896040000000     0.647020000000     0.039483   
H761     H      0.414730000000     0.989750000000     0.560130000000     0.0386075  
H762     H      0.352100000000     0.987950000000     0.559900000000     0.0387345  
H763     H      0.330620000000     0.021550000000     0.017900000000     0.0434009  
H764     H      0.435870000000     0.966870000000     0.530810000000     0.043109   
H765     H      0.433780000000     0.025350000000     0.518780000000     0.043334   
H766     H      0.416200000000     0.001040000000     0.988350000000     0.0413795  
H767     H      0.332520000000     0.963490000000     0.030770000000     0.0428796  
H768     H      0.350520000000     0.998380000000     0.987960000000     0.0412776  
N1       N      0.862050000000     0.384930000000     0.407250000000    -0.171308   
N2       N      0.877230000000     0.383950000000     0.342690000000    -0.17105    
N3       N      0.888230000000     0.384320000000     0.157470000000    -0.171069   
N4       N      0.875120000000     0.384020000000     0.092290000000    -0.170867   
N5       N      0.972570000000     0.385350000000     0.254520000000    -0.171646   
N6       N      0.029930000000     0.384780000000     0.221150000000    -0.171567   
N7       N      0.131490000000     0.382150000000     0.374620000000    -0.171435   
N8       N      0.122210000000     0.383010000000     0.308920000000    -0.171453   
N9       N      0.126280000000     0.386810000000     0.059430000000    -0.17177    
N10      N      0.113780000000     0.389130000000     0.124310000000    -0.17173    
N11      N      0.029140000000     0.387480000000     0.966180000000    -0.169223   
N12      N      0.966760000000     0.386910000000     0.991960000000    -0.169623   
N13      N      0.785240000000     0.381770000000     0.246110000000    -0.170881   
N14      N      0.720060000000     0.389480000000     0.233740000000    -0.170929   
N15      N      0.620160000000     0.474140000000     0.236520000000    -0.170743   
N16      N      0.643420000000     0.536480000000     0.240850000000    -0.171016   
N17      N      0.779140000000     0.382240000000     0.004270000000    -0.17125    
N18      N      0.715410000000     0.368530000000     0.017850000000    -0.171783   
N19      N      0.622650000000     0.466240000000     0.010560000000    -0.171301   
N20      N      0.644570000000     0.529250000000     0.010740000000    -0.171354   
N21      N      0.537890000000     0.611880000000     0.249880000000    -0.171188   
N22      N      0.472400000000     0.625480000000     0.247570000000    -0.170975   
N23      N      0.480000000000     0.607260000000     0.996980000000    -0.169147   
N24      N      0.545800000000     0.621720000000     0.001950000000    -0.170128   
N25      N      0.217340000000     0.388890000000     0.211780000000    -0.170539   
N26      N      0.282520000000     0.378750000000     0.223760000000    -0.170183   
N27      N      0.468380000000     0.356890000000     0.238110000000    -0.170491   
N28      N      0.532980000000     0.375540000000     0.239790000000    -0.169973   
N29      N      0.377010000000     0.528810000000     0.234990000000    -0.169848   
N30      N      0.389740000000     0.462940000000     0.231040000000    -0.169911   
N31      N      0.281480000000     0.384300000000     0.986750000000    -0.170455   
N32      N      0.216900000000     0.379140000000     0.970450000000    -0.171193   
N33      N      0.528360000000     0.374810000000     0.004620000000    -0.171243   
N34      N      0.465710000000     0.351800000000     0.001060000000    -0.172723   
N35      N      0.389910000000     0.460180000000     0.999120000000    -0.170098   
N36      N      0.375640000000     0.525640000000     0.997290000000    -0.169804   
N37      N      0.623270000000     0.786210000000     0.251310000000    -0.17037    
N38      N      0.616000000000     0.720470000000     0.259900000000    -0.170483   
N39      N      0.620330000000     0.778330000000     0.994240000000    -0.171127   
N40      N      0.636800000000     0.715670000000     0.007480000000    -0.172329   
N41      N      0.619050000000     0.872660000000     0.410200000000    -0.170979   
N42      N      0.618980000000     0.884580000000     0.344750000000    -0.170873   
N43      N      0.625020000000     0.881630000000     0.159190000000    -0.17076    
N44      N      0.623590000000     0.862660000000     0.095550000000    -0.170935   
N45      N      0.633200000000     0.287720000000     0.239190000000    -0.170805   
N46      N      0.620100000000     0.224660000000     0.255590000000    -0.170784   
N47      N      0.622180000000     0.038400000000     0.240560000000    -0.170863   
N48      N      0.622150000000     0.973200000000     0.255210000000    -0.170805   
N49      N      0.627520000000     0.213500000000     0.015280000000    -0.170886   
N50      N      0.619850000000     0.279460000000     0.010510000000    -0.171729   
N51      N      0.621110000000     0.133730000000     0.409610000000    -0.169161   
N52      N      0.619520000000     0.123120000000     0.343370000000    -0.169104   
N53      N      0.626090000000     0.112180000000     0.094950000000    -0.169847   
N54      N      0.624120000000     0.136160000000     0.157210000000    -0.169741   
N55      N      0.621130000000     0.964450000000     0.009960000000    -0.170389   
N56      N      0.621500000000     0.028340000000     0.990540000000    -0.170595   
N57      N      0.285520000000     0.622880000000     0.237890000000    -0.171837   
N58      N      0.221500000000     0.612590000000     0.223960000000    -0.171912   
N59      N      0.292980000000     0.626700000000     0.992650000000    -0.169072   
N60      N      0.227210000000     0.617250000000     0.001930000000    -0.171651   
N61      N      0.141660000000     0.625310000000     0.397470000000    -0.169929   
N62      N      0.150050000000     0.623960000000     0.331260000000    -0.170428   
N63      N      0.115980000000     0.621940000000     0.081320000000    -0.170539   
N64      N      0.120670000000     0.621620000000     0.147960000000    -0.17007    
N65      N      0.786230000000     0.651530000000     0.263910000000    -0.17167    
N66      N      0.723130000000     0.637460000000     0.249130000000    -0.171377   
N67      N      0.037840000000     0.631850000000     0.256760000000    -0.170323   
N68      N      0.972200000000     0.636990000000     0.243200000000    -0.170285   
N69      N      0.794220000000     0.645170000000     0.998170000000    -0.169387   
N70      N      0.733250000000     0.624840000000     0.015300000000    -0.171351   
N71      N      0.897370000000     0.644550000000     0.411760000000    -0.17058    
N72      N      0.884420000000     0.645380000000     0.346330000000    -0.170349   
N73      N      0.867080000000     0.642250000000     0.161270000000    -0.170799   
N74      N      0.884440000000     0.639720000000     0.097140000000    -0.170444   
N75      N      0.041200000000     0.630840000000     0.979750000000    -0.171318   
N76      N      0.981430000000     0.636790000000     0.008550000000    -0.170927   
N77      N      0.376210000000     0.215340000000     0.251740000000    -0.170847   
N78      N      0.363970000000     0.277650000000     0.232310000000    -0.170927   
N79      N      0.359300000000     0.275780000000     0.988480000000    -0.170129   
N80      N      0.374660000000     0.213810000000     0.007080000000    -0.171184   
N81      N      0.378300000000     0.116140000000     0.419250000000    -0.16993    
N82      N      0.378540000000     0.134910000000     0.355320000000    -0.170222   
N83      N      0.378500000000     0.110320000000     0.170480000000    -0.169761   
N84      N      0.378610000000     0.125760000000     0.105470000000    -0.169729   
N85      N      0.390450000000     0.778010000000     0.268020000000    -0.171024   
N86      N      0.377880000000     0.715180000000     0.250570000000    -0.170908   
N87      N      0.380920000000     0.030140000000     0.277030000000    -0.170649   
N88      N      0.383400000000     0.964810000000     0.262670000000    -0.170356   
N89      N      0.397830000000     0.711420000000     0.991260000000    -0.169577   
N90      N      0.389580000000     0.776340000000     0.004550000000    -0.170828   
N91      N      0.389100000000     0.870880000000     0.359390000000    -0.169769   
N92      N      0.389700000000     0.884670000000     0.424700000000    -0.170046   
N93      N      0.384190000000     0.870750000000     0.173060000000    -0.169897   
N94      N      0.384930000000     0.854050000000     0.108510000000    -0.170228   
N95      N      0.382100000000     0.026800000000     0.015190000000    -0.169421   
N96      N      0.384320000000     0.961660000000     0.031370000000    -0.170173   
N97      N      0.862050000000     0.384930000000     0.907250000000    -0.171376   
N98      N      0.877230000000     0.383950000000     0.842690000000    -0.171046   
N99      N      0.888230000000     0.384320000000     0.657470000000    -0.171061   
N100     N      0.875120000000     0.384020000000     0.592290000000    -0.170765   
N101     N      0.972570000000     0.385350000000     0.754520000000    -0.171648   
N102     N      0.029930000000     0.384780000000     0.721150000000    -0.171556   
N103     N      0.131490000000     0.382150000000     0.874620000000    -0.171446   
N104     N      0.122210000000     0.383010000000     0.808920000000    -0.171452   
N105     N      0.126280000000     0.386810000000     0.559430000000    -0.171669   
N106     N      0.113780000000     0.389130000000     0.624310000000    -0.171722   
N107     N      0.029140000000     0.387480000000     0.466180000000    -0.169421   
N108     N      0.966760000000     0.386910000000     0.491960000000    -0.169351   
N109     N      0.785240000000     0.381770000000     0.746110000000    -0.170873   
N110     N      0.720060000000     0.389480000000     0.733740000000    -0.170934   
N111     N      0.620160000000     0.474140000000     0.736520000000    -0.170744   
N112     N      0.643420000000     0.536480000000     0.740850000000    -0.171018   
N113     N      0.779140000000     0.382240000000     0.504270000000    -0.170696   
N114     N      0.715410000000     0.368530000000     0.517850000000    -0.171279   
N115     N      0.622650000000     0.466240000000     0.510560000000    -0.17096    
N116     N      0.644570000000     0.529250000000     0.510740000000    -0.17099    
N117     N      0.537890000000     0.611880000000     0.749880000000    -0.171202   
N118     N      0.472400000000     0.625480000000     0.747570000000    -0.170935   
N119     N      0.480000000000     0.607260000000     0.496980000000    -0.169607   
N120     N      0.545800000000     0.621720000000     0.501950000000    -0.169684   
N121     N      0.217340000000     0.388890000000     0.711780000000    -0.17054    
N122     N      0.282520000000     0.378750000000     0.723760000000    -0.170181   
N123     N      0.468380000000     0.356890000000     0.738110000000    -0.170447   
N124     N      0.532980000000     0.375540000000     0.739790000000    -0.169973   
N125     N      0.377010000000     0.528810000000     0.734990000000    -0.169849   
N126     N      0.389740000000     0.462940000000     0.731040000000    -0.16991    
N127     N      0.281480000000     0.384300000000     0.486750000000    -0.171014   
N128     N      0.216900000000     0.379140000000     0.470450000000    -0.170933   
N129     N      0.528360000000     0.374810000000     0.504620000000    -0.170892   
N130     N      0.465710000000     0.351800000000     0.501060000000    -0.171329   
N131     N      0.389910000000     0.460180000000     0.499110000000    -0.17049    
N132     N      0.375640000000     0.525640000000     0.497290000000    -0.170129   
N133     N      0.623270000000     0.786210000000     0.751310000000    -0.17037    
N134     N      0.616000000000     0.720470000000     0.759900000000    -0.170533   
N135     N      0.620330000000     0.778330000000     0.494240000000    -0.171867   
N136     N      0.636800000000     0.715670000000     0.507480000000    -0.171654   
N137     N      0.619050000000     0.872660000000     0.910200000000    -0.170884   
N138     N      0.618980000000     0.884580000000     0.844750000000    -0.170877   
N139     N      0.625020000000     0.881630000000     0.659180000000    -0.170674   
N140     N      0.623590000000     0.862660000000     0.595550000000    -0.170944   
N141     N      0.633200000000     0.287720000000     0.739190000000    -0.170811   
N142     N      0.620100000000     0.224660000000     0.755590000000    -0.170759   
N143     N      0.622180000000     0.038400000000     0.740560000000    -0.170851   
N144     N      0.622150000000     0.973200000000     0.755210000000    -0.170807   
N145     N      0.627520000000     0.213500000000     0.515280000000    -0.171179   
N146     N      0.619850000000     0.279460000000     0.510510000000    -0.171263   
N147     N      0.621110000000     0.133730000000     0.909610000000    -0.169057   
N148     N      0.619520000000     0.123120000000     0.843370000000    -0.169105   
N149     N      0.626090000000     0.112180000000     0.594950000000    -0.169859   
N150     N      0.624120000000     0.136160000000     0.657210000000    -0.169802   
N151     N      0.621130000000     0.964450000000     0.509960000000    -0.170522   
N152     N      0.621500000000     0.028340000000     0.490540000000    -0.170567   
N153     N      0.285520000000     0.622880000000     0.737890000000    -0.171836   
N154     N      0.221500000000     0.612590000000     0.723960000000    -0.171906   
N155     N      0.292980000000     0.626700000000     0.492650000000    -0.169749   
N156     N      0.227210000000     0.617250000000     0.501930000000    -0.170129   
N157     N      0.141660000000     0.625310000000     0.897470000000    -0.169929   
N158     N      0.150050000000     0.623960000000     0.831260000000    -0.17044    
N159     N      0.115980000000     0.621940000000     0.581320000000    -0.170445   
N160     N      0.120670000000     0.621620000000     0.647960000000    -0.17006    
N161     N      0.786230000000     0.651530000000     0.763910000000    -0.171666   
N162     N      0.723130000000     0.637460000000     0.749120000000    -0.17138    
N163     N      0.037840000000     0.631850000000     0.756760000000    -0.170325   
N164     N      0.972200000000     0.636990000000     0.743200000000    -0.170283   
N165     N      0.794220000000     0.645170000000     0.498170000000    -0.171016   
N166     N      0.733250000000     0.624840000000     0.515300000000    -0.170755   
N167     N      0.897370000000     0.644550000000     0.911760000000    -0.170479   
N168     N      0.884420000000     0.645380000000     0.846330000000    -0.170346   
N169     N      0.867080000000     0.642250000000     0.661270000000    -0.170789   
N170     N      0.884440000000     0.639720000000     0.597140000000    -0.170457   
N171     N      0.041200000000     0.630840000000     0.479750000000    -0.171186   
N172     N      0.981430000000     0.636790000000     0.508550000000    -0.17106    
N173     N      0.376210000000     0.215340000000     0.751740000000    -0.170866   
N174     N      0.363970000000     0.277650000000     0.732310000000    -0.17092    
N175     N      0.359300000000     0.275780000000     0.488480000000    -0.170784   
N176     N      0.374660000000     0.213810000000     0.507080000000    -0.170342   
N177     N      0.378300000000     0.116140000000     0.919250000000    -0.169826   
N178     N      0.378540000000     0.134910000000     0.855320000000    -0.170212   
N179     N      0.378500000000     0.110320000000     0.670480000000    -0.169766   
N180     N      0.378610000000     0.125760000000     0.605470000000    -0.169735   
N181     N      0.390450000000     0.778010000000     0.768020000000    -0.171045   
N182     N      0.377880000000     0.715180000000     0.750560000000    -0.17091    
N183     N      0.380920000000     0.030140000000     0.777030000000    -0.170645   
N184     N      0.383400000000     0.964810000000     0.762670000000    -0.170354   
N185     N      0.397830000000     0.711420000000     0.491260000000    -0.17026    
N186     N      0.389580000000     0.776340000000     0.504550000000    -0.169968   
N187     N      0.389100000000     0.870880000000     0.859390000000    -0.169761   
N188     N      0.389700000000     0.884670000000     0.924700000000    -0.169945   
N189     N      0.384190000000     0.870750000000     0.673060000000    -0.169895   
N190     N      0.384930000000     0.854050000000     0.608510000000    -0.170235   
N191     N      0.382100000000     0.026800000000     0.515190000000    -0.169683   
N192     N      0.384320000000     0.961660000000     0.531370000000    -0.169987   
Ni1      Ni     0.358650000000     0.868370000000     0.015500000000     0.991094   
Ni2      Ni     0.415620000000     0.869710000000     0.017610000000     0.992936   
Ni3      Ni     0.358250000000     0.870220000000     0.267170000000     0.99477    
Ni4      Ni     0.415210000000     0.872280000000     0.265270000000     0.998019   
Ni5      Ni     0.349970000000     0.119500000000     0.012720000000     0.993057   
Ni6      Ni     0.406960000000     0.121610000000     0.011970000000     0.990701   
Ni7      Ni     0.350010000000     0.122040000000     0.263290000000     0.996427   
Ni8      Ni     0.407040000000     0.123390000000     0.262590000000     0.995271   
Ni9      Ni     0.888930000000     0.670110000000     0.005200000000     0.994625   
Ni10     Ni     0.886520000000     0.613390000000     0.003260000000     0.999785   
Ni11     Ni     0.881010000000     0.672380000000     0.252590000000     0.996322   
Ni12     Ni     0.876840000000     0.615740000000     0.254430000000     1.0031     
Ni13     Ni     0.136210000000     0.652130000000     0.991100000000     0.99404    
Ni14     Ni     0.132320000000     0.595480000000     0.989270000000     1.0033     
Ni15     Ni     0.132790000000     0.651150000000     0.239280000000     0.996016   
Ni16     Ni     0.127310000000     0.594630000000     0.241410000000     1.00349    
Ni17     Ni     0.652310000000     0.120540000000     0.001080000000     0.997702   
Ni18     Ni     0.595350000000     0.121990000000     0.003250000000     0.986805   
Ni19     Ni     0.650000000000     0.131720000000     0.251240000000     0.99229    
Ni20     Ni     0.593010000000     0.131170000000     0.249440000000     0.99593    
Ni21     Ni     0.649510000000     0.871010000000     0.002020000000     1.00178    
Ni22     Ni     0.592490000000     0.871030000000     0.003920000000     0.999684   
Ni23     Ni     0.650880000000     0.879830000000     0.253200000000     1.00067    
Ni24     Ni     0.593880000000     0.879530000000     0.251050000000     0.999843   
Ni25     Ni     0.370700000000     0.366580000000     0.022000000000     0.994462   
Ni26     Ni     0.376200000000     0.369400000000     0.465820000000     1.00275    
Ni27     Ni     0.373130000000     0.370990000000     0.259350000000     0.991499   
Ni28     Ni     0.377950000000     0.369510000000     0.203240000000     0.997224   
Ni29     Ni     0.386870000000     0.617550000000     0.466540000000     0.995048   
Ni30     Ni     0.386170000000     0.619870000000     0.022790000000     0.985674   
Ni31     Ni     0.380500000000     0.624860000000     0.214630000000     0.997436   
Ni32     Ni     0.377060000000     0.619630000000     0.270620000000     1.00161    
Ni33     Ni     0.619850000000     0.372970000000     0.039310000000     0.99419    
Ni34     Ni     0.624340000000     0.372370000000     0.482960000000     1.00922    
Ni35     Ni     0.627930000000     0.381510000000     0.265470000000     0.996123   
Ni36     Ni     0.625840000000     0.380080000000     0.209190000000     0.996986   
Ni37     Ni     0.637460000000     0.623300000000     0.036910000000     0.995706   
Ni38     Ni     0.642060000000     0.621960000000     0.480750000000     0.998023   
Ni39     Ni     0.630810000000     0.625650000000     0.277920000000     1.00838    
Ni40     Ni     0.629510000000     0.631700000000     0.221900000000     0.990536   
Ni41     Ni     0.122130000000     0.355790000000     0.967830000000     1.0089     
Ni42     Ni     0.124740000000     0.412520000000     0.965940000000     0.997039   
Ni43     Ni     0.124150000000     0.358050000000     0.215280000000     1.0041     
Ni44     Ni     0.123100000000     0.414840000000     0.217420000000     1.00629    
Ni45     Ni     0.873390000000     0.356340000000     0.998970000000     1.00657    
Ni46     Ni     0.872010000000     0.413150000000     0.999960000000     0.99473    
Ni47     Ni     0.879410000000     0.355370000000     0.249640000000     1.00166    
Ni48     Ni     0.878330000000     0.412200000000     0.250110000000     1.00462    
Ni49     Ni     0.358650000000     0.868370000000     0.515500000000     0.99263    
Ni50     Ni     0.415620000000     0.869710000000     0.517610000000     0.993938   
Ni51     Ni     0.358250000000     0.870220000000     0.767170000000     0.994808   
Ni52     Ni     0.415210000000     0.872280000000     0.765270000000     0.998004   
Ni53     Ni     0.349970000000     0.119500000000     0.512710000000     0.994194   
Ni54     Ni     0.406960000000     0.121610000000     0.511970000000     0.991833   
Ni55     Ni     0.350010000000     0.122040000000     0.763290000000     0.996466   
Ni56     Ni     0.407040000000     0.123390000000     0.762580000000     0.995263   
Ni57     Ni     0.888930000000     0.670110000000     0.505200000000     0.995977   
Ni58     Ni     0.886520000000     0.613390000000     0.503260000000     1.0021     
Ni59     Ni     0.881010000000     0.672380000000     0.752590000000     0.996313   
Ni60     Ni     0.876840000000     0.615740000000     0.754430000000     1.00328    
Ni61     Ni     0.136210000000     0.652130000000     0.491100000000     0.992525   
Ni62     Ni     0.132320000000     0.595480000000     0.489270000000     1.00206    
Ni63     Ni     0.132790000000     0.651150000000     0.739290000000     0.995845   
Ni64     Ni     0.127310000000     0.594630000000     0.741410000000     1.00351    
Ni65     Ni     0.652310000000     0.120540000000     0.501080000000     0.999882   
Ni66     Ni     0.595350000000     0.121990000000     0.503250000000     0.988879   
Ni67     Ni     0.650000000000     0.131720000000     0.751240000000     0.992125   
Ni68     Ni     0.593010000000     0.131170000000     0.749440000000     0.995947   
Ni69     Ni     0.649510000000     0.871010000000     0.502020000000     1.004      
Ni70     Ni     0.592490000000     0.871030000000     0.503920000000     1.00056    
Ni71     Ni     0.650880000000     0.879830000000     0.753200000000     1.00074    
Ni72     Ni     0.593880000000     0.879530000000     0.751050000000     0.99962    
Ni73     Ni     0.370700000000     0.366580000000     0.522000000000     0.995075   
Ni74     Ni     0.376200000000     0.369400000000     0.965820000000     1.00427    
Ni75     Ni     0.373130000000     0.370990000000     0.759350000000     0.991468   
Ni76     Ni     0.377950000000     0.369510000000     0.703240000000     0.997157   
Ni77     Ni     0.386870000000     0.617550000000     0.966540000000     0.996556   
Ni78     Ni     0.386170000000     0.619870000000     0.522790000000     0.986327   
Ni79     Ni     0.380500000000     0.624860000000     0.714630000000     0.997434   
Ni80     Ni     0.377060000000     0.619630000000     0.770620000000     1.0016     
Ni81     Ni     0.619850000000     0.372970000000     0.539310000000     0.995656   
Ni82     Ni     0.624340000000     0.372370000000     0.982960000000     1.0099     
Ni83     Ni     0.627930000000     0.381510000000     0.765470000000     0.996129   
Ni84     Ni     0.625840000000     0.380080000000     0.709190000000     0.996969   
Ni85     Ni     0.637460000000     0.623300000000     0.536910000000     0.997185   
Ni86     Ni     0.642060000000     0.621960000000     0.980750000000     0.998795   
Ni87     Ni     0.630810000000     0.625650000000     0.777920000000     1.00848    
Ni88     Ni     0.629510000000     0.631700000000     0.721900000000     0.990504   
Ni89     Ni     0.122130000000     0.355790000000     0.467830000000     1.00767    
Ni90     Ni     0.124740000000     0.412520000000     0.465940000000     0.995903   
Ni91     Ni     0.124150000000     0.358050000000     0.715280000000     1.00416    
Ni92     Ni     0.123100000000     0.414840000000     0.717420000000     1.00628    
Ni93     Ni     0.873390000000     0.356340000000     0.498970000000     1.0043     
Ni94     Ni     0.872010000000     0.413150000000     0.499950000000     0.992427   
Ni95     Ni     0.879410000000     0.355370000000     0.749650000000     1.00169    
Ni96     Ni     0.878330000000     0.412200000000     0.750100000000     1.00459    
O1       O      0.359180000000     0.913420000000     0.523820000000    -0.448525   
O2       O      0.361850000000     0.823450000000     0.006830000000    -0.447698   
O3       O      0.359270000000     0.860060000000     0.060470000000    -0.446234   
O4       O      0.361890000000     0.876830000000     0.471010000000    -0.449732   
O5       O      0.415140000000     0.875670000000     0.472340000000    -0.447534   
O6       O      0.412390000000     0.863720000000     0.062420000000    -0.451027   
O7       O      0.414930000000     0.824160000000     0.512430000000    -0.447723   
O8       O      0.412440000000     0.915100000000     0.023430000000    -0.448278   
O9       O      0.358440000000     0.915960000000     0.264950000000    -0.449859   
O10      O      0.361940000000     0.824620000000     0.269780000000    -0.449304   
O11      O      0.361440000000     0.872250000000     0.312380000000    -0.450338   
O12      O      0.358820000000     0.868320000000     0.221540000000    -0.447187   
O13      O      0.411900000000     0.872730000000     0.220030000000    -0.4509     
O14      O      0.414700000000     0.871570000000     0.310950000000    -0.447237   
O15      O      0.415000000000     0.826580000000     0.264230000000    -0.451126   
O16      O      0.411680000000     0.917880000000     0.265730000000    -0.451234   
O17      O      0.353650000000     0.073810000000     0.013670000000    -0.448548   
O18      O      0.350040000000     0.165310000000     0.512200000000    -0.448397   
O19      O      0.351730000000     0.118510000000     0.467080000000    -0.447506   
O20      O      0.352010000000     0.120730000000     0.058060000000    -0.449043   
O21      O      0.405130000000     0.124820000000     0.057530000000    -0.446762   
O22      O      0.405010000000     0.118250000000     0.466770000000    -0.449599   
O23      O      0.403230000000     0.167170000000     0.007950000000    -0.447737   
O24      O      0.406870000000     0.075870000000     0.515150000000    -0.448074   
O25      O      0.353070000000     0.076640000000     0.268400000000    -0.450193   
O26      O      0.350750000000     0.167590000000     0.258990000000    -0.449895   
O27      O      0.351870000000     0.117030000000     0.217900000000    -0.447264   
O28      O      0.351950000000     0.127130000000     0.308330000000    -0.450241   
O29      O      0.405130000000     0.130460000000     0.307670000000    -0.44775    
O30      O      0.405150000000     0.116190000000     0.217770000000    -0.449323   
O31      O      0.403990000000     0.168420000000     0.254910000000    -0.449703   
O32      O      0.406310000000     0.078230000000     0.269880000000    -0.450576   
O33      O      0.934810000000     0.666040000000     0.506400000000    -0.448726   
O34      O      0.842750000000     0.670080000000     0.004430000000    -0.445887   
O35      O      0.887620000000     0.666960000000     0.050230000000    -0.453631   
O36      O      0.890620000000     0.669710000000     0.459730000000    -0.450199   
O37      O      0.891190000000     0.616650000000     0.458200000000    -0.45128    
O38      O      0.882470000000     0.614140000000     0.048780000000    -0.447762   
O39      O      0.841130000000     0.617250000000     0.498510000000    -0.453014   
O40      O      0.932040000000     0.613040000000     0.007490000000    -0.454398   
O41      O      0.926530000000     0.667040000000     0.249220000000    -0.450389   
O42      O      0.835260000000     0.674140000000     0.255440000000    -0.450984   
O43      O      0.884010000000     0.671440000000     0.298180000000    -0.447365   
O44      O      0.877190000000     0.669330000000     0.207480000000    -0.451074   
O45      O      0.870760000000     0.616660000000     0.209320000000    -0.451104   
O46      O      0.882730000000     0.618380000000     0.299170000000    -0.454255   
O47      O      0.831740000000     0.621340000000     0.260890000000    -0.451741   
O48      O      0.922390000000     0.614130000000     0.248440000000    -0.45071    
O49      O      0.090970000000     0.653680000000     0.983860000000    -0.451102   
O50      O      0.181280000000     0.646980000000     0.498930000000    -0.447748   
O51      O      0.143100000000     0.650970000000     0.445870000000    -0.445886   
O52      O      0.128210000000     0.649310000000     0.035730000000    -0.450786   
O53      O      0.127220000000     0.596250000000     0.034480000000    -0.451711   
O54      O      0.136860000000     0.598280000000     0.444400000000    -0.4542     
O55      O      0.178190000000     0.594190000000     0.993330000000    -0.448624   
O56      O      0.086910000000     0.600750000000     0.484820000000    -0.451389   
O57      O      0.087690000000     0.653840000000     0.248350000000    -0.448264   
O58      O      0.177270000000     0.644410000000     0.229700000000    -0.449649   
O59      O      0.123870000000     0.648720000000     0.195010000000    -0.452697   
O60      O      0.142060000000     0.649980000000     0.283900000000    -0.449176   
O61      O      0.134570000000     0.597460000000     0.286150000000    -0.451243   
O62      O      0.121300000000     0.595700000000     0.196150000000    -0.448665   
O63      O      0.172460000000     0.591730000000     0.235290000000    -0.45529    
O64      O      0.082390000000     0.601030000000     0.247910000000    -0.453113   
O65      O      0.649160000000     0.075210000000     0.496780000000    -0.452875   
O66      O      0.651880000000     0.165920000000     0.005070000000    -0.453597   
O67      O      0.651770000000     0.116420000000     0.046680000000    -0.445767   
O68      O      0.648910000000     0.125080000000     0.455920000000    -0.44811    
O69      O      0.595820000000     0.128990000000     0.458030000000    -0.444976   
O70      O      0.598520000000     0.115120000000     0.047980000000    -0.449255   
O71      O      0.598820000000     0.167100000000     0.510900000000    -0.447513   
O72      O      0.595900000000     0.076650000000     0.996260000000    -0.446979   
O73      O      0.648570000000     0.086200000000     0.246340000000    -0.449534   
O74      O      0.647470000000     0.177270000000     0.256330000000    -0.447719   
O75      O      0.646930000000     0.126930000000     0.296290000000    -0.448924   
O76      O      0.649420000000     0.136170000000     0.205780000000    -0.446408   
O77      O      0.596250000000     0.133170000000     0.204120000000    -0.448628   
O78      O      0.593710000000     0.128940000000     0.295230000000    -0.444409   
O79      O      0.594370000000     0.176800000000     0.250930000000    -0.451526   
O80      O      0.595290000000     0.085660000000     0.247120000000    -0.452624   
O81      O      0.647690000000     0.916510000000     0.006700000000    -0.451292   
O82      O      0.647380000000     0.825660000000     0.496630000000    -0.451894   
O83      O      0.646320000000     0.875310000000     0.457180000000    -0.455091   
O84      O      0.649020000000     0.866200000000     0.047310000000    -0.450696   
O85      O      0.595820000000     0.868920000000     0.049060000000    -0.452633   
O86      O      0.593110000000     0.872620000000     0.458350000000    -0.449567   
O87      O      0.594270000000     0.825460000000     0.002310000000    -0.453888   
O88      O      0.594400000000     0.916700000000     0.505860000000    -0.451537   
O89      O      0.648860000000     0.925440000000     0.252160000000    -0.452202   
O90      O      0.649250000000     0.834120000000     0.254930000000    -0.45052    
O91      O      0.650510000000     0.878760000000     0.207550000000    -0.448938   
O92      O      0.647280000000     0.881390000000     0.298300000000    -0.453106   
O93      O      0.594090000000     0.878560000000     0.296520000000    -0.451118   
O94      O      0.597300000000     0.881060000000     0.206010000000    -0.454454   
O95      O      0.596180000000     0.833720000000     0.249130000000    -0.4483     
O96      O      0.595570000000     0.925240000000     0.252680000000    -0.450839   
O97      O      0.362630000000     0.321760000000     0.017420000000    -0.449815   
O98      O      0.378620000000     0.411920000000     0.022870000000    -0.448321   
O99      O      0.325890000000     0.373970000000     0.016510000000    -0.452822   
O100     O      0.416070000000     0.358830000000     0.023690000000    -0.451428   
O101     O      0.420840000000     0.361110000000     0.471220000000    -0.453536   
O102     O      0.330970000000     0.378160000000     0.464070000000    -0.449238   
O103     O      0.384010000000     0.414080000000     0.470470000000    -0.453126   
O104     O      0.368840000000     0.324100000000     0.464980000000    -0.449056   
O105     O      0.364300000000     0.325990000000     0.257620000000    -0.448091   
O106     O      0.381880000000     0.415670000000     0.257250000000    -0.451188   
O107     O      0.328320000000     0.379670000000     0.253580000000    -0.44716    
O108     O      0.418580000000     0.362540000000     0.261210000000    -0.445313   
O109     O      0.423150000000     0.366060000000     0.208810000000    -0.453042   
O110     O      0.332040000000     0.372090000000     0.201440000000    -0.449049   
O111     O      0.381390000000     0.415460000000     0.204540000000    -0.445928   
O112     O      0.374970000000     0.323980000000     0.205910000000    -0.450012   
O113     O      0.388730000000     0.663460000000     0.466790000000    -0.447226   
O114     O      0.384370000000     0.572180000000     0.470060000000    -0.451391   
O115     O      0.341010000000     0.619270000000     0.467600000000    -0.448688   
O116     O      0.432940000000     0.615110000000     0.469380000000    -0.445883   
O117     O      0.431380000000     0.612160000000     0.021990000000    -0.449327   
O118     O      0.340710000000     0.627770000000     0.019710000000    -0.445285   
O119     O      0.378560000000     0.574460000000     0.022410000000    -0.446009   
O120     O      0.394510000000     0.664790000000     0.019270000000    -0.447607   
O121     O      0.383270000000     0.670050000000     0.220700000000    -0.450517   
O122     O      0.377910000000     0.578950000000     0.212400000000    -0.446693   
O123     O      0.334620000000     0.627880000000     0.214400000000    -0.450733   
O124     O      0.425930000000     0.622380000000     0.218840000000    -0.453449   
O125     O      0.422960000000     0.622750000000     0.271480000000    -0.450827   
O126     O      0.331700000000     0.616570000000     0.265940000000    -0.453689   
O127     O      0.379980000000     0.574460000000     0.264890000000    -0.451512   
O128     O      0.373600000000     0.665350000000     0.272430000000    -0.449184   
O129     O      0.665920000000     0.372450000000     0.040800000000    -0.44825    
O130     O      0.574400000000     0.374040000000     0.034210000000    -0.452235   
O131     O      0.618230000000     0.327030000000     0.037340000000    -0.447237   
O132     O      0.620990000000     0.418580000000     0.037300000000    -0.450991   
O133     O      0.625190000000     0.418070000000     0.484740000000    -0.453922   
O134     O      0.623610000000     0.327010000000     0.484760000000    -0.456332   
O135     O      0.578320000000     0.373530000000     0.481630000000    -0.451382   
O136     O      0.669830000000     0.370420000000     0.488120000000    -0.452237   
O137     O      0.673240000000     0.388140000000     0.261800000000    -0.448753   
O138     O      0.582020000000     0.375730000000     0.265150000000    -0.445536   
O139     O      0.634440000000     0.336120000000     0.264310000000    -0.449192   
O140     O      0.621910000000     0.426470000000     0.262850000000    -0.454207   
O141     O      0.625030000000     0.426110000000     0.210230000000    -0.446982   
O142     O      0.626130000000     0.334450000000     0.212170000000    -0.449698   
O143     O      0.580310000000     0.379390000000     0.212590000000    -0.453139   
O144     O      0.671870000000     0.380460000000     0.209550000000    -0.449129   
O145     O      0.633180000000     0.668470000000     0.033980000000    -0.453528   
O146     O      0.641580000000     0.577690000000     0.036090000000    -0.45073    
O147     O      0.683480000000     0.627820000000     0.038230000000    -0.445237   
O148     O      0.591990000000     0.619470000000     0.031580000000    -0.448386   
O149     O      0.595960000000     0.623090000000     0.479140000000    -0.447634   
O150     O      0.687500000000     0.620410000000     0.486080000000    -0.45115    
O151     O      0.641110000000     0.576430000000     0.483390000000    -0.452116   
O152     O      0.643510000000     0.667800000000     0.482160000000    -0.449811   
O153     O      0.627160000000     0.671280000000     0.280780000000    -0.450393   
O154     O      0.634940000000     0.580870000000     0.271290000000    -0.455303   
O155     O      0.676270000000     0.629160000000     0.275470000000    -0.454974   
O156     O      0.585030000000     0.621370000000     0.276450000000    -0.451731   
O157     O      0.584860000000     0.622080000000     0.223730000000    -0.452735   
O158     O      0.674640000000     0.640940000000     0.223980000000    -0.447554   
O159     O      0.638670000000     0.586700000000     0.219010000000    -0.446528   
O160     O      0.619720000000     0.675960000000     0.228690000000    -0.447409   
O161     O      0.076470000000     0.359560000000     0.465420000000    -0.452165   
O162     O      0.167730000000     0.355530000000     0.970910000000    -0.454227   
O163     O      0.120160000000     0.359270000000     0.012900000000    -0.455711   
O164     O      0.125150000000     0.356320000000     0.422350000000    -0.451189   
O165     O      0.124590000000     0.409390000000     0.421010000000    -0.456583   
O166     O      0.125490000000     0.412080000000     0.011250000000    -0.454809   
O167     O      0.170720000000     0.408320000000     0.465080000000    -0.446126   
O168     O      0.078430000000     0.412590000000     0.966540000000    -0.444629   
O169     O      0.078400000000     0.359000000000     0.218790000000    -0.452375   
O170     O      0.170000000000     0.361120000000     0.211310000000    -0.448718   
O171     O      0.127100000000     0.358280000000     0.260600000000    -0.453219   
O172     O      0.120180000000     0.361430000000     0.170510000000    -0.457296   
O173     O      0.121900000000     0.414480000000     0.171940000000    -0.452275   
O174     O      0.123600000000     0.411230000000     0.262480000000    -0.455872   
O175     O      0.168990000000     0.413960000000     0.217140000000    -0.451919   
O176     O      0.077400000000     0.412080000000     0.218110000000    -0.454539   
O177     O      0.919250000000     0.359430000000     0.996590000000    -0.449698   
O178     O      0.827520000000     0.357060000000     0.500540000000    -0.450723   
O179     O      0.870690000000     0.358470000000     0.453920000000    -0.45476    
O180     O      0.875360000000     0.357860000000     0.044410000000    -0.452866   
O181     O      0.876050000000     0.410940000000     0.044990000000    -0.452959   
O182     O      0.867460000000     0.411470000000     0.454650000000    -0.450198   
O183     O      0.826310000000     0.410080000000     0.004790000000    -0.448602   
O184     O      0.917960000000     0.412480000000     0.495570000000    -0.446136   
O185     O      0.924990000000     0.358060000000     0.253440000000    -0.4534     
O186     O      0.833690000000     0.356340000000     0.245350000000    -0.451073   
O187     O      0.883470000000     0.357400000000     0.204560000000    -0.452636   
O188     O      0.875870000000     0.357280000000     0.295040000000    -0.450711   
O189     O      0.877280000000     0.410350000000     0.295210000000    -0.455324   
O190     O      0.880090000000     0.410390000000     0.204700000000    -0.452441   
O191     O      0.832430000000     0.409360000000     0.249450000000    -0.450447   
O192     O      0.924170000000     0.411120000000     0.251460000000    -0.452945   
O193     O      0.359180000000     0.913420000000     0.023820000000    -0.448535   
O194     O      0.361850000000     0.823450000000     0.506830000000    -0.447506   
O195     O      0.359270000000     0.860060000000     0.560460000000    -0.446485   
O196     O      0.361890000000     0.876830000000     0.971000000000    -0.448664   
O197     O      0.415140000000     0.875670000000     0.972340000000    -0.446589   
O198     O      0.412390000000     0.863720000000     0.562420000000    -0.451168   
O199     O      0.414930000000     0.824160000000     0.012430000000    -0.447862   
O200     O      0.412440000000     0.915100000000     0.523440000000    -0.448199   
O201     O      0.358440000000     0.915960000000     0.764950000000    -0.449846   
O202     O      0.361940000000     0.824620000000     0.769780000000    -0.449298   
O203     O      0.361440000000     0.872250000000     0.812380000000    -0.45032    
O204     O      0.358820000000     0.868320000000     0.721540000000    -0.44718    
O205     O      0.411900000000     0.872730000000     0.720030000000    -0.4509     
O206     O      0.414700000000     0.871570000000     0.810950000000    -0.447228   
O207     O      0.415000000000     0.826580000000     0.764230000000    -0.451126   
O208     O      0.411680000000     0.917880000000     0.765730000000    -0.45123    
O209     O      0.353650000000     0.073810000000     0.513670000000    -0.448498   
O210     O      0.350040000000     0.165310000000     0.012200000000    -0.44853    
O211     O      0.351730000000     0.118510000000     0.967080000000    -0.446432   
O212     O      0.352010000000     0.120730000000     0.558060000000    -0.4491     
O213     O      0.405130000000     0.124820000000     0.557530000000    -0.446929   
O214     O      0.405010000000     0.118250000000     0.966770000000    -0.448627   
O215     O      0.403230000000     0.167170000000     0.507950000000    -0.447518   
O216     O      0.406870000000     0.075870000000     0.015150000000    -0.448107   
O217     O      0.353070000000     0.076640000000     0.768400000000    -0.450177   
O218     O      0.350750000000     0.167590000000     0.758990000000    -0.449891   
O219     O      0.351870000000     0.117030000000     0.717900000000    -0.447274   
O220     O      0.351950000000     0.127130000000     0.808330000000    -0.450207   
O221     O      0.405130000000     0.130460000000     0.807670000000    -0.447626   
O222     O      0.405150000000     0.116190000000     0.717770000000    -0.449444   
O223     O      0.403990000000     0.168420000000     0.754910000000    -0.449725   
O224     O      0.406310000000     0.078230000000     0.769880000000    -0.450554   
O225     O      0.934810000000     0.666040000000     0.006400000000    -0.448726   
O226     O      0.842750000000     0.670080000000     0.504430000000    -0.446404   
O227     O      0.887620000000     0.666960000000     0.550230000000    -0.45385    
O228     O      0.890620000000     0.669710000000     0.959720000000    -0.449141   
O229     O      0.891190000000     0.616650000000     0.958210000000    -0.450357   
O230     O      0.882470000000     0.614140000000     0.548780000000    -0.448007   
O231     O      0.841130000000     0.617250000000     0.998510000000    -0.450693   
O232     O      0.932040000000     0.613040000000     0.507480000000    -0.454558   
O233     O      0.926530000000     0.667040000000     0.749210000000    -0.450375   
O234     O      0.835260000000     0.674140000000     0.755440000000    -0.450965   
O235     O      0.884010000000     0.671440000000     0.798180000000    -0.447356   
O236     O      0.877190000000     0.669330000000     0.707480000000    -0.451016   
O237     O      0.870760000000     0.616660000000     0.709330000000    -0.451155   
O238     O      0.882730000000     0.618380000000     0.799170000000    -0.454287   
O239     O      0.831740000000     0.621340000000     0.760890000000    -0.45176    
O240     O      0.922390000000     0.614130000000     0.748440000000    -0.450736   
O241     O      0.090970000000     0.653680000000     0.483860000000    -0.451128   
O242     O      0.181280000000     0.646980000000     0.998930000000    -0.44776    
O243     O      0.143100000000     0.650970000000     0.945880000000    -0.44612    
O244     O      0.128210000000     0.649310000000     0.535730000000    -0.449805   
O245     O      0.127220000000     0.596250000000     0.534480000000    -0.450756   
O246     O      0.136860000000     0.598280000000     0.944400000000    -0.454372   
O247     O      0.178190000000     0.594190000000     0.493330000000    -0.448511   
O248     O      0.086910000000     0.600750000000     0.984820000000    -0.451334   
O249     O      0.087690000000     0.653840000000     0.748350000000    -0.448249   
O250     O      0.177270000000     0.644410000000     0.729700000000    -0.449595   
O251     O      0.123870000000     0.648720000000     0.695010000000    -0.452531   
O252     O      0.142060000000     0.649980000000     0.783910000000    -0.449226   
O253     O      0.134570000000     0.597460000000     0.786150000000    -0.451293   
O254     O      0.121300000000     0.595700000000     0.696150000000    -0.448642   
O255     O      0.172460000000     0.591730000000     0.735290000000    -0.455288   
O256     O      0.082390000000     0.601030000000     0.747910000000    -0.453116   
O257     O      0.649160000000     0.075210000000     0.996780000000    -0.451798   
O258     O      0.651880000000     0.165920000000     0.505070000000    -0.453663   
O259     O      0.651770000000     0.116420000000     0.546680000000    -0.445955   
O260     O      0.648910000000     0.125080000000     0.955920000000    -0.44715    
O261     O      0.595820000000     0.128990000000     0.958030000000    -0.443999   
O262     O      0.598520000000     0.115120000000     0.547980000000    -0.449447   
O263     O      0.598820000000     0.167100000000     0.010900000000    -0.44735    
O264     O      0.595900000000     0.076650000000     0.496260000000    -0.448027   
O265     O      0.648570000000     0.086200000000     0.746340000000    -0.449499   
O266     O      0.647470000000     0.177270000000     0.756330000000    -0.447686   
O267     O      0.646930000000     0.126930000000     0.796300000000    -0.448844   
O268     O      0.649420000000     0.136170000000     0.705780000000    -0.446276   
O269     O      0.596250000000     0.133170000000     0.704120000000    -0.448546   
O270     O      0.593710000000     0.128940000000     0.795230000000    -0.444433   
O271     O      0.594370000000     0.176800000000     0.750930000000    -0.451523   
O272     O      0.595290000000     0.085660000000     0.747120000000    -0.452624   
O273     O      0.647690000000     0.916510000000     0.506700000000    -0.451419   
O274     O      0.647380000000     0.825660000000     0.996630000000    -0.451087   
O275     O      0.646320000000     0.875310000000     0.957180000000    -0.454084   
O276     O      0.649020000000     0.866200000000     0.547310000000    -0.450907   
O277     O      0.595820000000     0.868920000000     0.549060000000    -0.452781   
O278     O      0.593110000000     0.872620000000     0.958350000000    -0.448677   
O279     O      0.594270000000     0.825460000000     0.502310000000    -0.452829   
O280     O      0.594400000000     0.916700000000     0.005860000000    -0.451604   
O281     O      0.648860000000     0.925440000000     0.752160000000    -0.452191   
O282     O      0.649250000000     0.834120000000     0.754930000000    -0.450513   
O283     O      0.650510000000     0.878760000000     0.707550000000    -0.448899   
O284     O      0.647280000000     0.881390000000     0.798300000000    -0.453125   
O285     O      0.594090000000     0.878560000000     0.796530000000    -0.451054   
O286     O      0.597300000000     0.881060000000     0.706010000000    -0.454389   
O287     O      0.596180000000     0.833720000000     0.749130000000    -0.448276   
O288     O      0.595570000000     0.925240000000     0.752680000000    -0.450814   
O289     O      0.362630000000     0.321760000000     0.517420000000    -0.448794   
O290     O      0.378620000000     0.411920000000     0.522870000000    -0.447254   
O291     O      0.325890000000     0.373970000000     0.516510000000    -0.451772   
O292     O      0.416070000000     0.358830000000     0.523690000000    -0.450155   
O293     O      0.420840000000     0.361110000000     0.971220000000    -0.454153   
O294     O      0.330970000000     0.378160000000     0.964070000000    -0.449636   
O295     O      0.384010000000     0.414080000000     0.970470000000    -0.453537   
O296     O      0.368840000000     0.324100000000     0.964980000000    -0.449431   
O297     O      0.364300000000     0.325990000000     0.757620000000    -0.448181   
O298     O      0.381880000000     0.415670000000     0.757250000000    -0.451187   
O299     O      0.328320000000     0.379670000000     0.753580000000    -0.447151   
O300     O      0.418580000000     0.362540000000     0.761220000000    -0.445143   
O301     O      0.423150000000     0.366060000000     0.708810000000    -0.452978   
O302     O      0.332040000000     0.372090000000     0.701440000000    -0.449033   
O303     O      0.381390000000     0.415460000000     0.704540000000    -0.445918   
O304     O      0.374970000000     0.323980000000     0.705910000000    -0.449906   
O305     O      0.388730000000     0.663460000000     0.966790000000    -0.447604   
O306     O      0.384370000000     0.572180000000     0.970070000000    -0.451959   
O307     O      0.341010000000     0.619270000000     0.967600000000    -0.449074   
O308     O      0.432940000000     0.615110000000     0.969380000000    -0.446268   
O309     O      0.431380000000     0.612160000000     0.521990000000    -0.448275   
O310     O      0.340710000000     0.627770000000     0.519710000000    -0.444243   
O311     O      0.378560000000     0.574460000000     0.522410000000    -0.444882   
O312     O      0.394510000000     0.664790000000     0.519270000000    -0.446575   
O313     O      0.383270000000     0.670050000000     0.720700000000    -0.450513   
O314     O      0.377910000000     0.578950000000     0.712400000000    -0.446691   
O315     O      0.334620000000     0.627880000000     0.714400000000    -0.450728   
O316     O      0.425930000000     0.622380000000     0.718840000000    -0.453446   
O317     O      0.422960000000     0.622750000000     0.771480000000    -0.450826   
O318     O      0.331700000000     0.616570000000     0.765940000000    -0.45369    
O319     O      0.379980000000     0.574460000000     0.764890000000    -0.451514   
O320     O      0.373600000000     0.665350000000     0.772430000000    -0.44919    
O321     O      0.665920000000     0.372450000000     0.540800000000    -0.448632   
O322     O      0.574400000000     0.374040000000     0.534210000000    -0.452633   
O323     O      0.618230000000     0.327030000000     0.537340000000    -0.447683   
O324     O      0.620990000000     0.418580000000     0.537300000000    -0.451393   
O325     O      0.625190000000     0.418070000000     0.984740000000    -0.45283    
O326     O      0.623610000000     0.327010000000     0.984750000000    -0.455107   
O327     O      0.578320000000     0.373530000000     0.981630000000    -0.450302   
O328     O      0.669830000000     0.370420000000     0.988120000000    -0.451168   
O329     O      0.673240000000     0.388140000000     0.761800000000    -0.44875    
O330     O      0.582020000000     0.375730000000     0.765150000000    -0.445534   
O331     O      0.634440000000     0.336120000000     0.764310000000    -0.449188   
O332     O      0.621910000000     0.426470000000     0.762850000000    -0.454207   
O333     O      0.625030000000     0.426110000000     0.710230000000    -0.446983   
O334     O      0.626130000000     0.334450000000     0.712170000000    -0.449698   
O335     O      0.580310000000     0.379390000000     0.712590000000    -0.453141   
O336     O      0.671870000000     0.380460000000     0.709550000000    -0.449129   
O337     O      0.633180000000     0.668470000000     0.533980000000    -0.453912   
O338     O      0.641580000000     0.577690000000     0.536090000000    -0.451117   
O339     O      0.683480000000     0.627820000000     0.538230000000    -0.445614   
O340     O      0.591990000000     0.619470000000     0.531580000000    -0.448869   
O341     O      0.595960000000     0.623090000000     0.979140000000    -0.44668    
O342     O      0.687500000000     0.620410000000     0.986080000000    -0.450103   
O343     O      0.641110000000     0.576430000000     0.983390000000    -0.451058   
O344     O      0.643510000000     0.667800000000     0.982160000000    -0.448765   
O345     O      0.627160000000     0.671280000000     0.780770000000    -0.450571   
O346     O      0.634940000000     0.580870000000     0.771290000000    -0.45532    
O347     O      0.676270000000     0.629160000000     0.775470000000    -0.454989   
O348     O      0.585030000000     0.621370000000     0.776450000000    -0.451844   
O349     O      0.584860000000     0.622080000000     0.723730000000    -0.452636   
O350     O      0.674640000000     0.640940000000     0.723980000000    -0.447546   
O351     O      0.638670000000     0.586700000000     0.719010000000    -0.446532   
O352     O      0.619720000000     0.675960000000     0.728690000000    -0.447467   
O353     O      0.076470000000     0.359560000000     0.965420000000    -0.452106   
O354     O      0.167730000000     0.355530000000     0.470910000000    -0.454357   
O355     O      0.120160000000     0.359270000000     0.512900000000    -0.45476    
O356     O      0.125150000000     0.356320000000     0.922350000000    -0.451374   
O357     O      0.124590000000     0.409390000000     0.921010000000    -0.456789   
O358     O      0.125490000000     0.412080000000     0.511250000000    -0.453837   
O359     O      0.170720000000     0.408320000000     0.965080000000    -0.446093   
O360     O      0.078430000000     0.412590000000     0.466540000000    -0.444705   
O361     O      0.078400000000     0.359000000000     0.718790000000    -0.452366   
O362     O      0.170000000000     0.361120000000     0.711320000000    -0.448737   
O363     O      0.127100000000     0.358280000000     0.760600000000    -0.453203   
O364     O      0.120180000000     0.361430000000     0.670510000000    -0.457293   
O365     O      0.121900000000     0.414480000000     0.671940000000    -0.452266   
O366     O      0.123600000000     0.411230000000     0.762480000000    -0.455871   
O367     O      0.168990000000     0.413960000000     0.717140000000    -0.451921   
O368     O      0.077400000000     0.412080000000     0.718110000000    -0.454534   
O369     O      0.919250000000     0.359430000000     0.496590000000    -0.449574   
O370     O      0.827520000000     0.357060000000     0.000540000000    -0.451928   
O371     O      0.870690000000     0.358470000000     0.953920000000    -0.454892   
O372     O      0.875360000000     0.357860000000     0.544410000000    -0.451851   
O373     O      0.876050000000     0.410940000000     0.544990000000    -0.451839   
O374     O      0.867460000000     0.411470000000     0.954650000000    -0.450201   
O375     O      0.826310000000     0.410080000000     0.504790000000    -0.447527   
O376     O      0.917960000000     0.412480000000     0.995570000000    -0.446259   
O377     O      0.924990000000     0.358060000000     0.753440000000    -0.453397   
O378     O      0.833690000000     0.356340000000     0.745350000000    -0.451057   
O379     O      0.883470000000     0.357400000000     0.704560000000    -0.452515   
O380     O      0.875870000000     0.357280000000     0.795040000000    -0.450803   
O381     O      0.877280000000     0.410350000000     0.795210000000    -0.455226   
O382     O      0.880090000000     0.410390000000     0.704700000000    -0.452526   
O383     O      0.832430000000     0.409360000000     0.749440000000    -0.450458   
O384     O      0.924170000000     0.411120000000     0.751460000000    -0.452938   


