data_structure

_audit_creation_method RASPA-1.0
_audit_creation_date 2023-5-22
_audit_author_name 'Poobodin Mano'

_cell_length_a    41.7044
_cell_length_b    41.9597
_cell_length_c    42.0967
_cell_angle_alpha 90
_cell_angle_beta  90
_cell_angle_gamma 89.997
_cell_volume      73665.2

_symmetry_cell_setting          triclinic
_symmetry_space_group_name_Hall 'P 1'
_symmetry_space_group_name_H-M  'P 1'
_symmetry_Int_Tables_number     1

_symmetry_equiv_pos_as_xyz 'x,y,z'

loop_
_atom_site_label
_atom_site_type_symbol
_atom_site_fract_x
_atom_site_fract_y
_atom_site_fract_z
_atom_site_charge
C1       C      0.998360000000     0.071780000000     0.501440000000     0.431396   
C2       C      0.997640000000     0.450830000000     0.494810000000     0.433408   
C3       C      0.059190000000     0.010430000000     0.002700000000     0.426433   
C4       C      0.437570000000     0.011400000000     0.993240000000     0.426283   
C5       C      0.503180000000     0.439290000000     0.243550000000     0.428936   
C6       C      0.508110000000     0.060560000000     0.243830000000     0.430616   
C7       C      0.444440000000     0.502260000000     0.244560000000     0.430318   
C8       C      0.066360000000     0.498580000000     0.243140000000     0.431221   
C9       C      0.007940000000     0.202210000000     0.500360000000     0.422587   
C10      C      0.009790000000     0.323450000000     0.007140000000     0.424044   
C11      C      0.508880000000     0.266590000000     0.443410000000     0.428791   
C12      C      0.508430000000     0.260520000000     0.064470000000     0.427893   
C13      C      0.510620000000     0.310190000000     0.254000000000     0.429231   
C14      C      0.503150000000     0.189150000000     0.255910000000     0.430167   
C15      C      0.006910000000     0.247700000000     0.194050000000     0.422195   
C16      C      0.007250000000     0.250190000000     0.315220000000     0.422622   
C17      C      0.247820000000     0.491050000000     0.056610000000     0.426727   
C18      C      0.249730000000     0.491450000000     0.435280000000     0.426346   
C19      C      0.187360000000     0.991740000000     0.994040000000     0.42468    
C20      C      0.309470000000     0.991830000000     0.998160000000     0.425022   
C21      C      0.263600000000     0.487850000000     0.306640000000     0.427579   
C22      C      0.244950000000     0.487660000000     0.186720000000     0.427396   
C23      C      0.314990000000     0.488810000000     0.238130000000     0.429784   
C24      C      0.194250000000     0.485770000000     0.254970000000     0.430436   
C25      C      0.268560000000     0.458500000000     0.357620000000    -0.010302   
C26      C      0.274760000000     0.017760000000     0.356440000000    -0.00906954 
C27      C      0.244530000000     0.461360000000     0.384880000000    -0.0108686  
C28      C      0.251230000000     0.021030000000     0.384220000000    -0.0093347  
C29      C      0.257280000000     0.461070000000     0.106330000000    -0.0108059  
C30      C      0.249270000000     0.020620000000     0.107530000000    -0.00909597 
C31      C      0.237030000000     0.457900000000     0.136400000000    -0.010336   
C32      C      0.229370000000     0.017010000000     0.137870000000    -0.00906925 
C33      C      0.477410000000     0.248940000000     0.366140000000    -0.0106727  
C34      C      0.037650000000     0.246070000000     0.365670000000    -0.0109661  
C35      C      0.478950000000     0.273460000000     0.392950000000    -0.0103248  
C36      C      0.038970000000     0.270370000000     0.392690000000    -0.0108299  
C37      C      0.036630000000     0.239860000000     0.143670000000    -0.0108874  
C38      C      0.476600000000     0.243410000000     0.143530000000    -0.0105034  
C39      C      0.038200000000     0.262540000000     0.115320000000    -0.0109738  
C40      C      0.477940000000     0.265540000000     0.114720000000    -0.0105797  
C41      C      0.142880000000     0.461240000000     0.240050000000    -0.0100076  
C42      C      0.144690000000     0.006350000000     0.279610000000    -0.00416689 
C43      C      0.117100000000     0.478860000000     0.221090000000    -0.00850559 
C44      C      0.116440000000     0.022220000000     0.262760000000    -0.00759347 
C45      C      0.394240000000     0.484630000000     0.269160000000    -0.00874988 
C46      C      0.393860000000     0.025220000000     0.224830000000    -0.0107205  
C47      C      0.367300000000     0.466460000000     0.252680000000    -0.00930935 
C48      C      0.363220000000     0.010010000000     0.211500000000    -0.00410968 
C49      C      0.994670000000     0.360490000000     0.279240000000    -0.000427588
C50      C      0.035290000000     0.359950000000     0.234850000000    -0.00796026 
C51      C      0.479310000000     0.390380000000     0.265170000000    -0.00918294 
C52      C      0.517970000000     0.388030000000     0.219070000000    -0.00941227 
C53      C      0.020120000000     0.138470000000     0.279900000000    -0.00988988 
C54      C      0.476970000000     0.139890000000     0.237840000000    -0.00939926 
C55      C      0.034280000000     0.108640000000     0.264550000000    -0.00884374 
C56      C      0.493260000000     0.112200000000     0.220570000000    -0.00887294 
C57      C      0.111630000000     0.031880000000     0.986200000000    -0.0114288  
C58      C      0.108270000000     0.488390000000     0.027370000000    -0.0107143  
C59      C      0.138650000000     0.013980000000     0.469570000000    -0.00331307 
C60      C      0.134670000000     0.469760000000     0.509830000000    -0.0097858  
C61      C      0.357390000000     0.012120000000     0.025480000000    -0.00320329 
C62      C      0.362450000000     0.471390000000     0.481770000000    -0.00931305 
C63      C      0.384980000000     0.031200000000     0.011210000000    -0.0107105  
C64      C      0.388900000000     0.491590000000     0.466290000000    -0.0105618  
C65      C      0.471920000000     0.400450000000     0.010630000000    -0.00888062 
C66      C      0.018540000000     0.400620000000     0.472510000000    -0.0137022  
C67      C      0.487250000000     0.373110000000     0.029050000000    -0.00916065 
C68      C      0.034920000000     0.374540000000     0.492220000000    -0.00926551 
C69      C      0.987630000000     0.154380000000     0.473310000000    -0.000258471
C70      C      0.031740000000     0.150360000000     0.014100000000    -0.00656183 
C71      C      0.474010000000     0.122470000000     0.484810000000    -0.0103109  
C72      C      0.515520000000     0.120960000000     0.028350000000    -0.00981814 
C73      C      0.998360000000     0.071780000000     0.001440000000     0.43184    
C74      C      0.997640000000     0.450830000000     0.994810000000     0.433267   
C75      C      0.059190000000     0.010430000000     0.502700000000     0.4262     
C76      C      0.437570000000     0.011400000000     0.493240000000     0.426151   
C77      C      0.503180000000     0.439290000000     0.743550000000     0.428934   
C78      C      0.508110000000     0.060560000000     0.743830000000     0.430612   
C79      C      0.444440000000     0.502260000000     0.744560000000     0.430049   
C80      C      0.066360000000     0.498580000000     0.743150000000     0.43122    
C81      C      0.007940000000     0.202210000000     0.000360000000     0.422995   
C82      C      0.009790000000     0.323450000000     0.507140000000     0.423973   
C83      C      0.508880000000     0.266590000000     0.943410000000     0.428822   
C84      C      0.508430000000     0.260520000000     0.564470000000     0.427873   
C85      C      0.510620000000     0.310190000000     0.754000000000     0.429267   
C86      C      0.503150000000     0.189150000000     0.755910000000     0.430172   
C87      C      0.006910000000     0.247700000000     0.694050000000     0.422214   
C88      C      0.007250000000     0.250190000000     0.815220000000     0.422584   
C89      C      0.247820000000     0.491050000000     0.556610000000     0.426757   
C90      C      0.249730000000     0.491450000000     0.935280000000     0.426452   
C91      C      0.187360000000     0.991740000000     0.494040000000     0.424689   
C92      C      0.309470000000     0.991830000000     0.498160000000     0.425357   
C93      C      0.263600000000     0.487850000000     0.806640000000     0.42746    
C94      C      0.244950000000     0.487660000000     0.686720000000     0.427396   
C95      C      0.314990000000     0.488810000000     0.738130000000     0.429784   
C96      C      0.194250000000     0.485770000000     0.754970000000     0.430437   
C97      C      0.268560000000     0.458500000000     0.857620000000    -0.0103113  
C98      C      0.274760000000     0.017760000000     0.856440000000    -0.00905263 
C99      C      0.244530000000     0.461360000000     0.884890000000    -0.0108459  
C100     C      0.251230000000     0.021030000000     0.884210000000    -0.00936427 
C101     C      0.257280000000     0.461070000000     0.606330000000    -0.010803   
C102     C      0.249270000000     0.020620000000     0.607530000000    -0.00908532 
C103     C      0.237030000000     0.457900000000     0.636400000000    -0.0103369  
C104     C      0.229370000000     0.017010000000     0.637870000000    -0.0090654  
C105     C      0.477410000000     0.248940000000     0.866140000000    -0.0106678  
C106     C      0.037650000000     0.246070000000     0.865680000000    -0.0109929  
C107     C      0.478950000000     0.273460000000     0.892950000000    -0.0103427  
C108     C      0.038970000000     0.270370000000     0.892690000000    -0.0108106  
C109     C      0.036630000000     0.239860000000     0.643670000000    -0.0108883  
C110     C      0.476600000000     0.243410000000     0.643530000000    -0.0105     
C111     C      0.038200000000     0.262540000000     0.615320000000    -0.0109742  
C112     C      0.477940000000     0.265540000000     0.614720000000    -0.0105812  
C113     C      0.142880000000     0.461240000000     0.740050000000    -0.0100088  
C114     C      0.144690000000     0.006350000000     0.779610000000    -0.00412133 
C115     C      0.117100000000     0.478860000000     0.721090000000    -0.00849794 
C116     C      0.116440000000     0.022220000000     0.762760000000    -0.0076095  
C117     C      0.394240000000     0.484630000000     0.769160000000    -0.00879815 
C118     C      0.393860000000     0.025220000000     0.724830000000    -0.0107368  
C119     C      0.367300000000     0.466460000000     0.752680000000    -0.00929413 
C120     C      0.363220000000     0.010010000000     0.711500000000    -0.00409051 
C121     C      0.994670000000     0.360490000000     0.779240000000    -0.000409867
C122     C      0.035290000000     0.359950000000     0.734860000000    -0.00792971 
C123     C      0.479310000000     0.390380000000     0.765170000000    -0.00920318 
C124     C      0.517970000000     0.388030000000     0.719070000000    -0.00938062 
C125     C      0.020120000000     0.138470000000     0.779900000000    -0.00989027 
C126     C      0.476970000000     0.139890000000     0.737840000000    -0.00939839 
C127     C      0.034280000000     0.108640000000     0.764550000000    -0.00884352 
C128     C      0.493260000000     0.112200000000     0.720570000000    -0.00887298 
C129     C      0.111630000000     0.031880000000     0.486200000000    -0.011125   
C130     C      0.108270000000     0.488390000000     0.527370000000    -0.0106418  
C131     C      0.138650000000     0.013980000000     0.969570000000    -0.00323359 
C132     C      0.134670000000     0.469760000000     0.009830000000    -0.00942577 
C133     C      0.357390000000     0.012120000000     0.525480000000    -0.00308628 
C134     C      0.362450000000     0.471390000000     0.981770000000    -0.00945766 
C135     C      0.384980000000     0.031200000000     0.511210000000    -0.0110491  
C136     C      0.388900000000     0.491590000000     0.966290000000    -0.0105222  
C137     C      0.471920000000     0.400450000000     0.510630000000    -0.00921319 
C138     C      0.018540000000     0.400620000000     0.972510000000    -0.0136208  
C139     C      0.487250000000     0.373110000000     0.529050000000    -0.00908418 
C140     C      0.034920000000     0.374540000000     0.992220000000    -0.00958639 
C141     C      0.987630000000     0.154380000000     0.973310000000    -0.000175362
C142     C      0.031740000000     0.150360000000     0.514100000000    -0.00693733 
C143     C      0.474010000000     0.122470000000     0.984810000000    -0.0106015  
C144     C      0.515520000000     0.120960000000     0.528350000000    -0.00974558 
C145     C      0.998360000000     0.571780000000     0.501440000000     0.431221   
C146     C      0.997640000000     0.950830000000     0.494810000000     0.433784   
C147     C      0.059190000000     0.510430000000     0.002700000000     0.426042   
C148     C      0.437570000000     0.511400000000     0.993240000000     0.42594    
C149     C      0.503180000000     0.939290000000     0.243550000000     0.429058   
C150     C      0.508110000000     0.560550000000     0.243830000000     0.430804   
C151     C      0.444440000000     0.002260000000     0.244560000000     0.430269   
C152     C      0.066360000000     0.998580000000     0.243140000000     0.431127   
C153     C      0.007940000000     0.702210000000     0.500360000000     0.422599   
C154     C      0.009790000000     0.823450000000     0.007140000000     0.424057   
C155     C      0.508880000000     0.766590000000     0.443410000000     0.428793   
C156     C      0.508430000000     0.760520000000     0.064470000000     0.427895   
C157     C      0.510620000000     0.810180000000     0.254000000000     0.429318   
C158     C      0.503150000000     0.689150000000     0.255910000000     0.43017    
C159     C      0.006910000000     0.747710000000     0.194050000000     0.422209   
C160     C      0.007250000000     0.750180000000     0.315220000000     0.422633   
C161     C      0.247820000000     0.991050000000     0.056610000000     0.423344   
C162     C      0.249730000000     0.991450000000     0.435280000000     0.422954   
C163     C      0.187360000000     0.491740000000     0.994040000000     0.427923   
C164     C      0.309470000000     0.491830000000     0.998160000000     0.428263   
C165     C      0.263600000000     0.987850000000     0.306640000000     0.424191   
C166     C      0.244950000000     0.987660000000     0.186720000000     0.424025   
C167     C      0.314990000000     0.988810000000     0.238130000000     0.426573   
C168     C      0.194250000000     0.985770000000     0.254970000000     0.427286   
C169     C      0.268560000000     0.958500000000     0.357620000000    -0.0105889  
C170     C      0.274760000000     0.517760000000     0.356440000000    -0.0106812  
C171     C      0.244530000000     0.961360000000     0.384880000000    -0.0111067  
C172     C      0.251230000000     0.521030000000     0.384220000000    -0.0109553  
C173     C      0.257280000000     0.961060000000     0.106330000000    -0.0111688  
C174     C      0.249270000000     0.520630000000     0.107530000000    -0.0108365  
C175     C      0.237030000000     0.957900000000     0.136400000000    -0.0105435  
C176     C      0.229370000000     0.517010000000     0.137870000000    -0.0106246  
C177     C      0.477410000000     0.748940000000     0.366140000000    -0.0106548  
C178     C      0.037650000000     0.746070000000     0.365670000000    -0.0109572  
C179     C      0.478950000000     0.773460000000     0.392950000000    -0.0103521  
C180     C      0.038970000000     0.770370000000     0.392690000000    -0.0108222  
C181     C      0.036630000000     0.739850000000     0.143670000000    -0.0109178  
C182     C      0.476600000000     0.743410000000     0.143530000000    -0.0105027  
C183     C      0.038200000000     0.762550000000     0.115320000000    -0.0109801  
C184     C      0.477940000000     0.765540000000     0.114720000000    -0.0105692  
C185     C      0.142880000000     0.961240000000     0.240050000000    -0.0102531  
C186     C      0.144690000000     0.506350000000     0.279610000000    -0.00921444 
C187     C      0.117100000000     0.978860000000     0.221090000000    -0.00855476 
C188     C      0.116440000000     0.522220000000     0.262760000000    -0.00845234 
C189     C      0.394240000000     0.984630000000     0.269160000000    -0.0145317  
C190     C      0.393860000000     0.525220000000     0.224830000000    -0.00936704 
C191     C      0.367300000000     0.966460000000     0.252680000000    -0.0079969  
C192     C      0.363220000000     0.510010000000     0.211500000000    -0.00966778 
C193     C      0.994670000000     0.860490000000     0.279240000000    -0.00046082 
C194     C      0.035290000000     0.859960000000     0.234850000000    -0.00801712 
C195     C      0.479310000000     0.890380000000     0.265170000000    -0.00918769 
C196     C      0.517970000000     0.888030000000     0.219070000000    -0.00934255 
C197     C      0.020120000000     0.638470000000     0.279900000000    -0.00988789 
C198     C      0.476970000000     0.639890000000     0.237840000000    -0.00938577 
C199     C      0.034280000000     0.608650000000     0.264550000000    -0.00882947 
C200     C      0.493260000000     0.612200000000     0.220570000000    -0.00889167 
C201     C      0.111630000000     0.531880000000     0.986200000000    -0.0100692  
C202     C      0.108270000000     0.988390000000     0.027370000000    -0.0163496  
C203     C      0.138650000000     0.513980000000     0.469570000000    -0.00887859 
C204     C      0.134670000000     0.969760000000     0.509830000000    -0.00853785 
C205     C      0.357390000000     0.512120000000     0.025480000000    -0.00873543 
C206     C      0.362440000000     0.971390000000     0.481770000000    -0.00801957 
C207     C      0.384980000000     0.531200000000     0.011210000000    -0.00931516 
C208     C      0.388900000000     0.991590000000     0.466290000000    -0.0162541  
C209     C      0.471920000000     0.900450000000     0.010630000000    -0.00887568 
C210     C      0.018540000000     0.900620000000     0.472510000000    -0.0136709  
C211     C      0.487250000000     0.873110000000     0.029050000000    -0.00915046 
C212     C      0.034920000000     0.874540000000     0.492220000000    -0.00927423 
C213     C      0.987630000000     0.654380000000     0.473310000000    -0.000253233
C214     C      0.031740000000     0.650360000000     0.014100000000    -0.00653915 
C215     C      0.474010000000     0.622470000000     0.484810000000    -0.0103122  
C216     C      0.515520000000     0.620960000000     0.028350000000    -0.00982059 
C217     C      0.998360000000     0.571780000000     0.001440000000     0.431679   
C218     C      0.997640000000     0.950830000000     0.994810000000     0.433639   
C219     C      0.059190000000     0.510430000000     0.502700000000     0.425794   
C220     C      0.437570000000     0.511400000000     0.493240000000     0.425819   
C221     C      0.503180000000     0.939290000000     0.743550000000     0.429057   
C222     C      0.508110000000     0.560550000000     0.743830000000     0.4308     
C223     C      0.444440000000     0.002260000000     0.744560000000     0.430001   
C224     C      0.066360000000     0.998580000000     0.743150000000     0.431125   
C225     C      0.007940000000     0.702210000000     0.000360000000     0.423023   
C226     C      0.009790000000     0.823450000000     0.507140000000     0.423984   
C227     C      0.508880000000     0.766590000000     0.943410000000     0.428825   
C228     C      0.508430000000     0.760520000000     0.564470000000     0.427874   
C229     C      0.510620000000     0.810180000000     0.754000000000     0.429354   
C230     C      0.503150000000     0.689150000000     0.755910000000     0.430176   
C231     C      0.006910000000     0.747710000000     0.694050000000     0.422228   
C232     C      0.007250000000     0.750180000000     0.815220000000     0.422595   
C233     C      0.247820000000     0.991050000000     0.556610000000     0.423356   
C234     C      0.249730000000     0.991450000000     0.935280000000     0.423061   
C235     C      0.187360000000     0.491740000000     0.494040000000     0.427935   
C236     C      0.309470000000     0.491830000000     0.498160000000     0.428611   
C237     C      0.263600000000     0.987850000000     0.806640000000     0.424067   
C238     C      0.244950000000     0.987660000000     0.686720000000     0.424016   
C239     C      0.314990000000     0.988810000000     0.738130000000     0.426567   
C240     C      0.194250000000     0.985770000000     0.754970000000     0.427281   
C241     C      0.268560000000     0.958500000000     0.857620000000    -0.0105978  
C242     C      0.274760000000     0.517760000000     0.856440000000    -0.0106671  
C243     C      0.244530000000     0.961360000000     0.884890000000    -0.0110848  
C244     C      0.251230000000     0.521030000000     0.884210000000    -0.0109837  
C245     C      0.257280000000     0.961060000000     0.606330000000    -0.011167   
C246     C      0.249270000000     0.520630000000     0.607530000000    -0.0108328  
C247     C      0.237030000000     0.957900000000     0.636400000000    -0.0105452  
C248     C      0.229370000000     0.517010000000     0.637870000000    -0.010626   
C249     C      0.477410000000     0.748940000000     0.866140000000    -0.0106499  
C250     C      0.037650000000     0.746070000000     0.865680000000    -0.0109839  
C251     C      0.478950000000     0.773460000000     0.892950000000    -0.0103699  
C252     C      0.038970000000     0.770370000000     0.892690000000    -0.010803   
C253     C      0.036630000000     0.739850000000     0.643670000000    -0.0109187  
C254     C      0.476600000000     0.743410000000     0.643530000000    -0.0104992  
C255     C      0.038200000000     0.762550000000     0.615320000000    -0.0109805  
C256     C      0.477940000000     0.765540000000     0.614720000000    -0.0105707  
C257     C      0.142880000000     0.961240000000     0.740050000000    -0.0102549  
C258     C      0.144690000000     0.506350000000     0.779610000000    -0.00917429 
C259     C      0.117100000000     0.978860000000     0.721090000000    -0.00854707 
C260     C      0.116440000000     0.522220000000     0.762760000000    -0.00847159 
C261     C      0.394240000000     0.984630000000     0.769160000000    -0.0145933  
C262     C      0.393860000000     0.525220000000     0.724830000000    -0.00937987 
C263     C      0.367300000000     0.966460000000     0.752680000000    -0.00797829 
C264     C      0.363220000000     0.510010000000     0.711500000000    -0.00966286 
C265     C      0.994670000000     0.860490000000     0.779240000000    -0.000443201
C266     C      0.035290000000     0.859960000000     0.734860000000    -0.00798672 
C267     C      0.479310000000     0.890380000000     0.765170000000    -0.00920807 
C268     C      0.517970000000     0.888030000000     0.719070000000    -0.00931071 
C269     C      0.020120000000     0.638470000000     0.779900000000    -0.00988827 
C270     C      0.476970000000     0.639890000000     0.737840000000    -0.00938488 
C271     C      0.034280000000     0.608650000000     0.764550000000    -0.00882919 
C272     C      0.493260000000     0.612200000000     0.720570000000    -0.00889169 
C273     C      0.111630000000     0.531880000000     0.486200000000    -0.00974339 
C274     C      0.108270000000     0.988390000000     0.527370000000    -0.0163051  
C275     C      0.138650000000     0.513980000000     0.969570000000    -0.00879229 
C276     C      0.134670000000     0.969760000000     0.009830000000    -0.0081785  
C277     C      0.357390000000     0.512120000000     0.525480000000    -0.00864311 
C278     C      0.362440000000     0.971390000000     0.981770000000    -0.00816621 
C279     C      0.384980000000     0.531200000000     0.511210000000    -0.0096688  
C280     C      0.388900000000     0.991590000000     0.966290000000    -0.0162121  
C281     C      0.471920000000     0.900450000000     0.510630000000    -0.00921596 
C282     C      0.018540000000     0.900620000000     0.972510000000    -0.0135875  
C283     C      0.487250000000     0.873110000000     0.529050000000    -0.00907216 
C284     C      0.034920000000     0.874540000000     0.992220000000    -0.00960233 
C285     C      0.987630000000     0.654380000000     0.973310000000    -0.000165268
C286     C      0.031740000000     0.650360000000     0.514100000000    -0.00693112 
C287     C      0.474010000000     0.622470000000     0.984810000000    -0.0106199  
C288     C      0.515520000000     0.620960000000     0.528350000000    -0.0097444  
C289     C      0.498360000000     0.071780000000     0.501440000000     0.425587   
C290     C      0.497640000000     0.450830000000     0.494810000000     0.427339   
C291     C      0.559190000000     0.010430000000     0.002700000000     0.426121   
C292     C      0.937570000000     0.011400000000     0.993240000000     0.425918   
C293     C      0.003180000000     0.439290000000     0.243550000000     0.427909   
C294     C      0.008110000000     0.060560000000     0.243830000000     0.430007   
C295     C      0.944440000000     0.502260000000     0.244560000000     0.4296     
C296     C      0.566360000000     0.498580000000     0.243140000000     0.431536   
C297     C      0.507940000000     0.202210000000     0.500360000000     0.428218   
C298     C      0.509790000000     0.323450000000     0.007140000000     0.429623   
C299     C      0.008880000000     0.266590000000     0.443410000000     0.422909   
C300     C      0.008430000000     0.260520000000     0.064470000000     0.421987   
C301     C      0.010620000000     0.310190000000     0.254000000000     0.423515   
C302     C      0.003150000000     0.189150000000     0.255910000000     0.424236   
C303     C      0.506910000000     0.247700000000     0.194050000000     0.428124   
C304     C      0.507250000000     0.250190000000     0.315220000000     0.428507   
C305     C      0.747820000000     0.491050000000     0.056610000000     0.426723   
C306     C      0.749730000000     0.491450000000     0.435280000000     0.426341   
C307     C      0.687360000000     0.991740000000     0.994040000000     0.424662   
C308     C      0.809470000000     0.991830000000     0.998160000000     0.42503    
C309     C      0.763600000000     0.487850000000     0.306640000000     0.427578   
C310     C      0.744950000000     0.487660000000     0.186720000000     0.42739    
C311     C      0.814990000000     0.488810000000     0.238130000000     0.429789   
C312     C      0.694250000000     0.485770000000     0.254970000000     0.430547   
C313     C      0.768560000000     0.458500000000     0.357620000000    -0.0103074  
C314     C      0.774760000000     0.017760000000     0.356440000000    -0.00909431 
C315     C      0.744520000000     0.461360000000     0.384880000000    -0.0109183  
C316     C      0.751230000000     0.021030000000     0.384220000000    -0.00933006 
C317     C      0.757280000000     0.461070000000     0.106330000000    -0.0108172  
C318     C      0.749270000000     0.020620000000     0.107530000000    -0.00910254 
C319     C      0.737030000000     0.457900000000     0.136400000000    -0.0103482  
C320     C      0.729370000000     0.017010000000     0.137870000000    -0.00907866 
C321     C      0.977410000000     0.248940000000     0.366140000000    -0.00786664 
C322     C      0.537650000000     0.246070000000     0.365670000000    -0.0105334  
C323     C      0.978950000000     0.273460000000     0.392950000000    -0.00752291 
C324     C      0.538970000000     0.270370000000     0.392690000000    -0.0103991  
C325     C      0.536630000000     0.239860000000     0.143670000000    -0.0104664  
C326     C      0.976600000000     0.243410000000     0.143530000000    -0.00770161 
C327     C      0.538200000000     0.262540000000     0.115320000000    -0.0105246  
C328     C      0.977940000000     0.265540000000     0.114720000000    -0.00779011 
C329     C      0.642880000000     0.461240000000     0.240050000000    -0.0100175  
C330     C      0.644690000000     0.006350000000     0.279610000000    -0.00416857 
C331     C      0.617100000000     0.478860000000     0.221090000000    -0.00851153 
C332     C      0.616440000000     0.022220000000     0.262760000000    -0.00757032 
C333     C      0.894240000000     0.484630000000     0.269160000000    -0.00880115 
C334     C      0.893860000000     0.025220000000     0.224830000000    -0.0107832  
C335     C      0.867300000000     0.466460000000     0.252680000000    -0.00928653 
C336     C      0.863220000000     0.010010000000     0.211500000000    -0.00408118 
C337     C      0.494670000000     0.360490000000     0.279240000000    -0.00924301 
C338     C      0.535290000000     0.359950000000     0.234850000000    -0.00928991 
C339     C      0.979310000000     0.390380000000     0.265170000000    -0.00795582 
C340     C      0.017970000000     0.388030000000     0.219070000000    -0.0157128  
C341     C      0.520120000000     0.138470000000     0.279900000000    -0.00935229 
C342     C      0.976970000000     0.139890000000     0.237840000000    -0.00826724 
C343     C      0.534280000000     0.108640000000     0.264550000000    -0.00882935 
C344     C      0.993260000000     0.112200000000     0.220570000000     0.000246051
C345     C      0.611630000000     0.031880000000     0.986200000000    -0.011416   
C346     C      0.608270000000     0.488390000000     0.027370000000    -0.0108051  
C347     C      0.638650000000     0.013980000000     0.469570000000    -0.00329701 
C348     C      0.634670000000     0.469760000000     0.509830000000    -0.00974986 
C349     C      0.857390000000     0.012120000000     0.025480000000    -0.00319525 
C350     C      0.862440000000     0.471390000000     0.481770000000    -0.00923217 
C351     C      0.884980000000     0.031200000000     0.011210000000    -0.0107344  
C352     C      0.888900000000     0.491590000000     0.466290000000    -0.010698   
C353     C      0.971920000000     0.400450000000     0.010630000000    -0.0107769  
C354     C      0.518540000000     0.400620000000     0.472510000000    -0.010124   
C355     C      0.987250000000     0.373110000000     0.029050000000     0.000357808
C356     C      0.534920000000     0.374540000000     0.492220000000    -0.00978586 
C357     C      0.487630000000     0.154380000000     0.473310000000    -0.00990894 
C358     C      0.531740000000     0.150360000000     0.014100000000    -0.00872702 
C359     C      0.974010000000     0.122470000000     0.484810000000    -0.0125208  
C360     C      0.015520000000     0.120960000000     0.028350000000    -0.0193579  
C361     C      0.498360000000     0.071780000000     0.001440000000     0.426074   
C362     C      0.497640000000     0.450830000000     0.994810000000     0.427198   
C363     C      0.559190000000     0.010430000000     0.502700000000     0.425903   
C364     C      0.937570000000     0.011400000000     0.493240000000     0.42578    
C365     C      0.003180000000     0.439290000000     0.743550000000     0.427905   
C366     C      0.008110000000     0.060560000000     0.743830000000     0.430001   
C367     C      0.944440000000     0.502260000000     0.744560000000     0.429331   
C368     C      0.566360000000     0.498580000000     0.743150000000     0.431536   
C369     C      0.507940000000     0.202210000000     0.000360000000     0.428589   
C370     C      0.509790000000     0.323450000000     0.507140000000     0.429583   
C371     C      0.008880000000     0.266590000000     0.943410000000     0.422944   
C372     C      0.008430000000     0.260520000000     0.564470000000     0.421941   
C373     C      0.010620000000     0.310190000000     0.754000000000     0.423541   
C374     C      0.003150000000     0.189150000000     0.755910000000     0.424231   
C375     C      0.506910000000     0.247700000000     0.694050000000     0.428156   
C376     C      0.507250000000     0.250190000000     0.815220000000     0.428475   
C377     C      0.747820000000     0.491050000000     0.556610000000     0.426751   
C378     C      0.749730000000     0.491450000000     0.935280000000     0.426447   
C379     C      0.687360000000     0.991740000000     0.494040000000     0.42467    
C380     C      0.809470000000     0.991830000000     0.498160000000     0.425348   
C381     C      0.763600000000     0.487850000000     0.806640000000     0.427459   
C382     C      0.744950000000     0.487660000000     0.686720000000     0.42739    
C383     C      0.814990000000     0.488810000000     0.738130000000     0.429789   
C384     C      0.694250000000     0.485770000000     0.754970000000     0.430549   
C385     C      0.768560000000     0.458500000000     0.857620000000    -0.0103167  
C386     C      0.774760000000     0.017760000000     0.856440000000    -0.00907738 
C387     C      0.744520000000     0.461360000000     0.884890000000    -0.0108955  
C388     C      0.751230000000     0.021030000000     0.884210000000    -0.00935952 
C389     C      0.757280000000     0.461070000000     0.606330000000    -0.0108145  
C390     C      0.749270000000     0.020620000000     0.607530000000    -0.00909203 
C391     C      0.737030000000     0.457900000000     0.636400000000    -0.0103491  
C392     C      0.729370000000     0.017010000000     0.637870000000    -0.00907474 
C393     C      0.977410000000     0.248940000000     0.866140000000    -0.00785981 
C394     C      0.537650000000     0.246070000000     0.865680000000    -0.0105595  
C395     C      0.978950000000     0.273460000000     0.892950000000    -0.00754156 
C396     C      0.538970000000     0.270370000000     0.892690000000    -0.0103803  
C397     C      0.536630000000     0.239860000000     0.643670000000    -0.0104662  
C398     C      0.976600000000     0.243410000000     0.643530000000    -0.00769084 
C399     C      0.538200000000     0.262540000000     0.615320000000    -0.0105234  
C400     C      0.977940000000     0.265540000000     0.614720000000    -0.0077809  
C401     C      0.642880000000     0.461240000000     0.740050000000    -0.0100187  
C402     C      0.644690000000     0.006350000000     0.779610000000    -0.00412289 
C403     C      0.617100000000     0.478860000000     0.721090000000    -0.00850395 
C404     C      0.616440000000     0.022220000000     0.762760000000    -0.00758635 
C405     C      0.894240000000     0.484630000000     0.769160000000    -0.00884942 
C406     C      0.893860000000     0.025220000000     0.724830000000    -0.0107995  
C407     C      0.867300000000     0.466460000000     0.752680000000    -0.00927134 
C408     C      0.863220000000     0.010010000000     0.711500000000    -0.0040619  
C409     C      0.494670000000     0.360490000000     0.779240000000    -0.00923624 
C410     C      0.535290000000     0.359950000000     0.734860000000    -0.0092619  
C411     C      0.979310000000     0.390380000000     0.765170000000    -0.00797341 
C412     C      0.017970000000     0.388030000000     0.719070000000    -0.0156945  
C413     C      0.520120000000     0.138470000000     0.779900000000    -0.0093516  
C414     C      0.976970000000     0.139890000000     0.737840000000    -0.0082657  
C415     C      0.534280000000     0.108640000000     0.764550000000    -0.00882932 
C416     C      0.993260000000     0.112200000000     0.720570000000     0.000264527
C417     C      0.611630000000     0.031880000000     0.486200000000    -0.0111336  
C418     C      0.608270000000     0.488390000000     0.527370000000    -0.0107375  
C419     C      0.638650000000     0.013980000000     0.969570000000    -0.00322294 
C420     C      0.634670000000     0.469760000000     0.009830000000    -0.00941192 
C421     C      0.857390000000     0.012120000000     0.525480000000    -0.00308213 
C422     C      0.862440000000     0.471390000000     0.981770000000    -0.00937036 
C423     C      0.884980000000     0.031200000000     0.511210000000    -0.0110577  
C424     C      0.888900000000     0.491590000000     0.966290000000    -0.0106598  
C425     C      0.971920000000     0.400450000000     0.510630000000    -0.0111054  
C426     C      0.518540000000     0.400620000000     0.972510000000    -0.0100527  
C427     C      0.987250000000     0.373110000000     0.529050000000     0.00047707 
C428     C      0.534920000000     0.374540000000     0.992220000000    -0.0100815  
C429     C      0.487630000000     0.154380000000     0.973310000000    -0.00981646 
C430     C      0.531740000000     0.150360000000     0.514100000000    -0.00908604 
C431     C      0.974010000000     0.122470000000     0.984810000000    -0.0127974  
C432     C      0.015520000000     0.120960000000     0.528350000000    -0.0193252  
C433     C      0.498360000000     0.571780000000     0.501440000000     0.425405   
C434     C      0.497640000000     0.950830000000     0.494810000000     0.427743   
C435     C      0.559190000000     0.510430000000     0.002700000000     0.42573    
C436     C      0.937570000000     0.511400000000     0.993240000000     0.425575   
C437     C      0.003180000000     0.939290000000     0.243550000000     0.428032   
C438     C      0.008110000000     0.560550000000     0.243830000000     0.430194   
C439     C      0.944440000000     0.002260000000     0.244560000000     0.429553   
C440     C      0.566370000000     0.998580000000     0.243140000000     0.431358   
C441     C      0.507940000000     0.702210000000     0.500360000000     0.428224   
C442     C      0.509790000000     0.823450000000     0.007140000000     0.429624   
C443     C      0.008880000000     0.766590000000     0.443410000000     0.422921   
C444     C      0.008430000000     0.760520000000     0.064470000000     0.421999   
C445     C      0.010620000000     0.810180000000     0.254000000000     0.423611   
C446     C      0.003150000000     0.689150000000     0.255910000000     0.424245   
C447     C      0.506910000000     0.747710000000     0.194050000000     0.42813    
C448     C      0.507250000000     0.750180000000     0.315220000000     0.428509   
C449     C      0.747820000000     0.991050000000     0.056610000000     0.42333    
C450     C      0.749730000000     0.991450000000     0.435280000000     0.422939   
C451     C      0.687360000000     0.491740000000     0.994040000000     0.427916   
C452     C      0.809470000000     0.491830000000     0.998160000000     0.42828    
C453     C      0.763600000000     0.987850000000     0.306640000000     0.424173   
C454     C      0.744950000000     0.987660000000     0.186720000000     0.424018   
C455     C      0.814990000000     0.988810000000     0.238130000000     0.42654    
C456     C      0.694250000000     0.985770000000     0.254970000000     0.427296   
C457     C      0.768560000000     0.958500000000     0.357620000000    -0.0105953  
C458     C      0.774760000000     0.517760000000     0.356440000000    -0.0107081  
C459     C      0.744520000000     0.961360000000     0.384880000000    -0.0111569  
C460     C      0.751230000000     0.521030000000     0.384220000000    -0.0109542  
C461     C      0.757280000000     0.961060000000     0.106330000000    -0.0111809  
C462     C      0.749270000000     0.520630000000     0.107530000000    -0.0108461  
C463     C      0.737030000000     0.957900000000     0.136400000000    -0.0105559  
C464     C      0.729370000000     0.517010000000     0.137870000000    -0.0106383  
C465     C      0.977410000000     0.748940000000     0.366140000000    -0.00785239 
C466     C      0.537650000000     0.746070000000     0.365670000000    -0.0105252  
C467     C      0.978950000000     0.773460000000     0.392950000000    -0.00755441 
C468     C      0.538970000000     0.770370000000     0.392690000000    -0.010392   
C469     C      0.536630000000     0.739850000000     0.143670000000    -0.0104976  
C470     C      0.976600000000     0.743410000000     0.143530000000    -0.00770423 
C471     C      0.538200000000     0.762550000000     0.115320000000    -0.0105313  
C472     C      0.977940000000     0.765540000000     0.114720000000    -0.00778359 
C473     C      0.642880000000     0.961240000000     0.240050000000    -0.0102638  
C474     C      0.644690000000     0.506350000000     0.279610000000    -0.00922899 
C475     C      0.617100000000     0.978860000000     0.221090000000    -0.00854749 
C476     C      0.616440000000     0.522220000000     0.262760000000    -0.00844788 
C477     C      0.894240000000     0.984630000000     0.269160000000    -0.0145903  
C478     C      0.893860000000     0.525220000000     0.224830000000    -0.0094279  
C479     C      0.867300000000     0.966460000000     0.252680000000    -0.00797374 
C480     C      0.863220000000     0.510010000000     0.211500000000    -0.00964395 
C481     C      0.494670000000     0.860490000000     0.279240000000    -0.00925215 
C482     C      0.535290000000     0.859960000000     0.234850000000    -0.00934359 
C483     C      0.979310000000     0.890380000000     0.265170000000    -0.00796674 
C484     C      0.017970000000     0.888030000000     0.219070000000    -0.0156246  
C485     C      0.520120000000     0.638470000000     0.279900000000    -0.00935051 
C486     C      0.976970000000     0.639890000000     0.237840000000    -0.00825515 
C487     C      0.534280000000     0.608650000000     0.264550000000    -0.00881471 
C488     C      0.993260000000     0.612200000000     0.220570000000     0.000231613
C489     C      0.611630000000     0.531880000000     0.986200000000    -0.0100514  
C490     C      0.608270000000     0.988390000000     0.027370000000    -0.0164624  
C491     C      0.638650000000     0.513980000000     0.469570000000    -0.0088817  
C492     C      0.634670000000     0.969760000000     0.509830000000    -0.00849715 
C493     C      0.857390000000     0.512120000000     0.025480000000    -0.00873438 
C494     C      0.862440000000     0.971390000000     0.481770000000    -0.0079728  
C495     C      0.884980000000     0.531200000000     0.011210000000    -0.00933804 
C496     C      0.888900000000     0.991590000000     0.466290000000    -0.016382   
C497     C      0.971920000000     0.900450000000     0.010630000000    -0.0107665  
C498     C      0.518540000000     0.900620000000     0.472510000000    -0.0101059  
C499     C      0.987250000000     0.873110000000     0.029050000000     0.000338974
C500     C      0.534920000000     0.874540000000     0.492220000000    -0.00979248 
C501     C      0.487630000000     0.654380000000     0.473310000000    -0.0099023  
C502     C      0.531740000000     0.650360000000     0.014100000000    -0.00870481 
C503     C      0.974010000000     0.622470000000     0.484810000000    -0.0125215  
C504     C      0.015520000000     0.620960000000     0.028350000000    -0.0193623  
C505     C      0.498360000000     0.571780000000     0.001440000000     0.425905   
C506     C      0.497640000000     0.950830000000     0.994810000000     0.427599   
C507     C      0.559190000000     0.510430000000     0.502700000000     0.425496   
C508     C      0.937570000000     0.511400000000     0.493240000000     0.425447   
C509     C      0.003180000000     0.939290000000     0.743550000000     0.428028   
C510     C      0.008110000000     0.560550000000     0.743830000000     0.430189   
C511     C      0.944440000000     0.002260000000     0.744560000000     0.429285   
C512     C      0.566370000000     0.998580000000     0.743150000000     0.431357   
C513     C      0.507940000000     0.702210000000     0.000360000000     0.428612   
C514     C      0.509790000000     0.823450000000     0.507140000000     0.429582   
C515     C      0.008880000000     0.766590000000     0.943410000000     0.422957   
C516     C      0.008430000000     0.760520000000     0.564470000000     0.421952   
C517     C      0.010620000000     0.810180000000     0.754000000000     0.423638   
C518     C      0.003150000000     0.689150000000     0.755910000000     0.42424    
C519     C      0.506910000000     0.747710000000     0.694050000000     0.428162   
C520     C      0.507250000000     0.750180000000     0.815220000000     0.428477   
C521     C      0.747820000000     0.991050000000     0.556610000000     0.42334    
C522     C      0.749730000000     0.991450000000     0.935280000000     0.423047   
C523     C      0.687360000000     0.491740000000     0.494040000000     0.427927   
C524     C      0.809470000000     0.491830000000     0.498160000000     0.428612   
C525     C      0.763600000000     0.987850000000     0.806640000000     0.424049   
C526     C      0.744950000000     0.987660000000     0.686720000000     0.424009   
C527     C      0.814990000000     0.988810000000     0.738130000000     0.426533   
C528     C      0.694250000000     0.985770000000     0.754970000000     0.427291   
C529     C      0.768560000000     0.958500000000     0.857620000000    -0.0106042  
C530     C      0.774760000000     0.517760000000     0.856440000000    -0.0106939  
C531     C      0.744520000000     0.961360000000     0.884890000000    -0.0111349  
C532     C      0.751230000000     0.521030000000     0.884210000000    -0.0109825  
C533     C      0.757280000000     0.961060000000     0.606330000000    -0.0111792  
C534     C      0.749270000000     0.520630000000     0.607530000000    -0.0108427  
C535     C      0.737030000000     0.957900000000     0.636400000000    -0.0105577  
C536     C      0.729370000000     0.517010000000     0.637870000000    -0.0106396  
C537     C      0.977410000000     0.748940000000     0.866140000000    -0.0078456  
C538     C      0.537650000000     0.746070000000     0.865680000000    -0.0105513  
C539     C      0.978950000000     0.773460000000     0.892950000000    -0.00757306 
C540     C      0.538970000000     0.770370000000     0.892690000000    -0.0103732  
C541     C      0.536630000000     0.739850000000     0.643670000000    -0.0104974  
C542     C      0.976600000000     0.743410000000     0.643530000000    -0.00769348 
C543     C      0.538200000000     0.762550000000     0.615320000000    -0.0105301  
C544     C      0.977940000000     0.765540000000     0.614720000000    -0.00777441 
C545     C      0.642880000000     0.961240000000     0.740050000000    -0.0102656  
C546     C      0.644690000000     0.506350000000     0.779610000000    -0.00918886 
C547     C      0.617100000000     0.978860000000     0.721090000000    -0.00853985 
C548     C      0.616440000000     0.522220000000     0.762760000000    -0.00846715 
C549     C      0.894240000000     0.984630000000     0.769160000000    -0.014652   
C550     C      0.893860000000     0.525220000000     0.724830000000    -0.00944074 
C551     C      0.867300000000     0.966460000000     0.752680000000    -0.00795514 
C552     C      0.863220000000     0.510010000000     0.711500000000    -0.00963906 
C553     C      0.494670000000     0.860490000000     0.779240000000    -0.00924532 
C554     C      0.535290000000     0.859960000000     0.734860000000    -0.00931569 
C555     C      0.979310000000     0.890380000000     0.765170000000    -0.0079845  
C556     C      0.017970000000     0.888030000000     0.719070000000    -0.015606   
C557     C      0.520120000000     0.638470000000     0.779900000000    -0.00934981 
C558     C      0.976970000000     0.639890000000     0.737840000000    -0.0082536  
C559     C      0.534280000000     0.608650000000     0.764550000000    -0.0088146  
C560     C      0.993260000000     0.612200000000     0.720570000000     0.000249998
C561     C      0.611630000000     0.531880000000     0.486200000000    -0.00974694 
C562     C      0.608270000000     0.988390000000     0.527370000000    -0.016423   
C563     C      0.638650000000     0.513980000000     0.969570000000    -0.00880094 
C564     C      0.634670000000     0.969760000000     0.009830000000    -0.00815966 
C565     C      0.857390000000     0.512120000000     0.525480000000    -0.00864611 
C566     C      0.862440000000     0.971390000000     0.981770000000    -0.00811305 
C567     C      0.884980000000     0.531200000000     0.511210000000    -0.00967641 
C568     C      0.888900000000     0.991590000000     0.966290000000    -0.0163414  
C569     C      0.971920000000     0.900450000000     0.510630000000    -0.0111028  
C570     C      0.518540000000     0.900620000000     0.972510000000    -0.0100326  
C571     C      0.987250000000     0.873110000000     0.529050000000     0.000459786
C572     C      0.534920000000     0.874540000000     0.992220000000    -0.0100956  
C573     C      0.487630000000     0.654380000000     0.973310000000    -0.00980482 
C574     C      0.531740000000     0.650360000000     0.514100000000    -0.0090805  
C575     C      0.974010000000     0.622470000000     0.984810000000    -0.0128152  
C576     C      0.015520000000     0.620960000000     0.528350000000    -0.0193258  
H1       H      0.299460000000     0.016800000000     0.366360000000     0.0391207  
H2       H      0.292830000000     0.454940000000     0.367980000000     0.0383069  
H3       H      0.246500000000     0.439760000000     0.400030000000     0.0439575  
H4       H      0.273110000000     0.039350000000     0.341260000000     0.0435546  
H5       H      0.258450000000     0.041830000000     0.398920000000     0.0431436  
H6       H      0.227030000000     0.026070000000     0.374340000000     0.0396539  
H7       H      0.262650000000     0.437050000000     0.343280000000     0.043309   
H8       H      0.219960000000     0.461730000000     0.374620000000     0.0402242  
H9       H      0.274330000000     0.026530000000     0.114390000000     0.0395097  
H10      H      0.282970000000     0.461780000000     0.113370000000     0.0399798  
H11      H      0.245460000000     0.436860000000     0.150090000000     0.0432685  
H12      H      0.239640000000     0.041020000000     0.093640000000     0.0430579  
H13      H      0.232370000000     0.038790000000     0.152590000000     0.0435755  
H14      H      0.203670000000     0.015420000000     0.131000000000     0.039219   
H15      H      0.253650000000     0.439380000000     0.091600000000     0.0438884  
H16      H      0.211760000000     0.453410000000     0.129230000000     0.0381805  
H17      H      0.038550000000     0.221800000000     0.376250000000     0.0384969  
H18      H      0.474360000000     0.224920000000     0.376880000000     0.039366   
H19      H      0.457140000000     0.271050000000     0.407920000000     0.0433254  
H20      H      0.059300000000     0.248990000000     0.350570000000     0.0436656  
H21      H      0.060520000000     0.265600000000     0.407470000000     0.043463   
H22      H      0.041750000000     0.294480000000     0.382080000000     0.0383756  
H23      H      0.455930000000     0.253940000000     0.351320000000     0.0432181  
H24      H      0.478660000000     0.297670000000     0.382170000000     0.0385159  
H25      H      0.473290000000     0.218600000000     0.134830000000     0.0387257  
H26      H      0.036880000000     0.214980000000     0.134550000000     0.0384782  
H27      H      0.059550000000     0.256330000000     0.100770000000     0.0432095  
H28      H      0.455280000000     0.249650000000     0.158090000000     0.0433611  
H29      H      0.456350000000     0.261310000000     0.099840000000     0.0435622  
H30      H      0.476810000000     0.290560000000     0.123380000000     0.0391575  
H31      H      0.058490000000     0.243280000000     0.158380000000     0.0434946  
H32      H      0.041540000000     0.287210000000     0.124410000000     0.0390283  
H33      H      0.134980000000     0.992130000000     0.299700000000     0.0369298  
H34      H      0.130950000000     0.444630000000     0.256910000000     0.0413556  
H35      H      0.101420000000     0.461220000000     0.208880000000     0.0372833  
H36      H      0.160750000000     0.024880000000     0.289820000000     0.0399718  
H37      H      0.100600000000     0.033930000000     0.280550000000     0.0391274  
H38      H      0.126170000000     0.041230000000     0.247080000000     0.0393331  
H39      H      0.157890000000     0.447040000000     0.223390000000     0.0407878  
H40      H      0.128960000000     0.493950000000     0.202820000000     0.0415576  
H41      H      0.386670000000     0.046050000000     0.239510000000     0.0387498  
H42      H      0.383640000000     0.501200000000     0.286920000000     0.0422493  
H43      H      0.353250000000     0.453220000000     0.270880000000     0.0402547  
H44      H      0.408820000000     0.034450000000     0.204970000000     0.040317   
H45      H      0.346840000000     0.028950000000     0.202620000000     0.0399515  
H46      H      0.370120000000     0.995150000000     0.190730000000     0.0357784  
H47      H      0.410000000000     0.467380000000     0.281800000000     0.0385044  
H48      H      0.377970000000     0.448950000000     0.235880000000     0.0417482  
H49      H      0.055080000000     0.369400000000     0.249860000000     0.0407741  
H50      H      0.011810000000     0.368160000000     0.297970000000     0.0347974  
H51      H      0.470810000000     0.406140000000     0.284680000000     0.039939   
H52      H      0.045800000000     0.344350000000     0.216180000000     0.037735   
H53      H      0.035690000000     0.402610000000     0.205660000000     0.0394126  
H54      H      0.499990000000     0.378520000000     0.202010000000     0.0419444  
H55      H      0.475950000000     0.345710000000     0.290970000000     0.0401554  
H56      H      0.457850000000     0.382880000000     0.251380000000     0.0389496  
H57      H      0.458080000000     0.130170000000     0.253770000000     0.0415538  
H58      H      0.504060000000     0.130720000000     0.299520000000     0.0396452  
H59      H      0.043610000000     0.092420000000     0.283310000000     0.0393438  
H60      H      0.465410000000     0.155800000000     0.220040000000     0.0394489  
H61      H      0.474820000000     0.098020000000     0.207700000000     0.0383129  
H62      H      0.010490000000     0.122010000000     0.202930000000     0.0371425  
H63      H      0.039660000000     0.152950000000     0.290650000000     0.0405014  
H64      H      0.055030000000     0.116100000000     0.249740000000     0.038608   
H65      H      0.119650000000     0.502850000000     0.046420000000     0.0409853  
H66      H      0.122650000000     0.049540000000     0.002590000000     0.0405558  
H67      H      0.155530000000     0.031330000000     0.458610000000     0.0404483  
H68      H      0.091410000000     0.471220000000     0.038620000000     0.0404518  
H69      H      0.148970000000     0.455900000000     0.027360000000     0.039545   
H70      H      0.123090000000     0.452770000000     0.493110000000     0.0400046  
H71      H      0.097380000000     0.045380000000     0.468380000000     0.0421858  
H72      H      0.127910000000     0.999740000000     0.450000000000     0.0366249  
H73      H      0.373880000000     0.453190000000     0.997280000000     0.0402205  
H74      H      0.367460000000     0.996310000000     0.044190000000     0.0364025  
H75      H      0.399000000000     0.042710000000     0.030550000000     0.0419678  
H76      H      0.348510000000     0.458920000000     0.462950000000     0.0386138  
H77      H      0.405930000000     0.475550000000     0.453710000000     0.0408343  
H78      H      0.377680000000     0.507720000000     0.448510000000     0.0412274  
H79      H      0.340150000000     0.028570000000     0.037230000000     0.0397708  
H80      H      0.374520000000     0.050530000000     0.496410000000     0.040251   
H81      H      0.004760000000     0.389130000000     0.453010000000     0.0401525  
H82      H      0.454780000000     0.390000000000     0.493280000000     0.0392395  
H83      H      0.468220000000     0.357270000000     0.038720000000     0.0414656  
H84      H      0.037180000000     0.416280000000     0.461830000000     0.0405533  
H85      H      0.049820000000     0.359470000000     0.476240000000     0.0405017  
H86      H      0.050940000000     0.386070000000     0.009940000000     0.0398137  
H87      H      0.457910000000     0.415770000000     0.027130000000     0.0413384  
H88      H      0.500360000000     0.383490000000     0.049600000000     0.0398812  
H89      H      0.050240000000     0.142470000000     0.996770000000     0.0404125  
H90      H      0.002860000000     0.149590000000     0.452160000000     0.0333992  
H91      H      0.464900000000     0.108700000000     0.464110000000     0.0417009  
H92      H      0.043840000000     0.163930000000     0.033410000000     0.0385754  
H93      H      0.034120000000     0.105410000000     0.039290000000     0.0414298  
H94      H      0.498640000000     0.128750000000     0.047270000000     0.0420853  
H95      H      0.467640000000     0.170030000000     0.465370000000     0.0410937  
H96      H      0.453090000000     0.127620000000     0.500360000000     0.0384367  
H97      H      0.299460000000     0.016800000000     0.866360000000     0.0391154  
H98      H      0.292830000000     0.454940000000     0.867980000000     0.0383069  
H99      H      0.246500000000     0.439760000000     0.900030000000     0.0439541  
H100     H      0.273110000000     0.039350000000     0.841260000000     0.0435458  
H101     H      0.258450000000     0.041830000000     0.898920000000     0.0431513  
H102     H      0.227030000000     0.026070000000     0.874340000000     0.0396634  
H103     H      0.262650000000     0.437050000000     0.843280000000     0.0433057  
H104     H      0.219960000000     0.461730000000     0.874620000000     0.040216   
H105     H      0.274330000000     0.026530000000     0.614390000000     0.0395015  
H106     H      0.282970000000     0.461780000000     0.613370000000     0.0399682  
H107     H      0.245460000000     0.436860000000     0.650090000000     0.043261   
H108     H      0.239640000000     0.041020000000     0.593640000000     0.0430381  
H109     H      0.232370000000     0.038790000000     0.652590000000     0.0435695  
H110     H      0.203670000000     0.015420000000     0.631000000000     0.0392136  
H111     H      0.253650000000     0.439380000000     0.591600000000     0.0438642  
H112     H      0.211760000000     0.453410000000     0.629230000000     0.0381706  
H113     H      0.038550000000     0.221800000000     0.876250000000     0.0385017  
H114     H      0.474360000000     0.224920000000     0.876880000000     0.0393607  
H115     H      0.457140000000     0.271050000000     0.907920000000     0.0433135  
H116     H      0.059300000000     0.248990000000     0.850570000000     0.0436714  
H117     H      0.060520000000     0.265600000000     0.907470000000     0.0434581  
H118     H      0.041750000000     0.294480000000     0.882080000000     0.0383693  
H119     H      0.455930000000     0.253940000000     0.851320000000     0.0432146  
H120     H      0.478660000000     0.297670000000     0.882180000000     0.0385195  
H121     H      0.473290000000     0.218600000000     0.634830000000     0.0387182  
H122     H      0.036880000000     0.214980000000     0.634550000000     0.0384698  
H123     H      0.059550000000     0.256330000000     0.600770000000     0.0431948  
H124     H      0.455280000000     0.249650000000     0.658090000000     0.043356   
H125     H      0.456350000000     0.261310000000     0.599840000000     0.0435484  
H126     H      0.476810000000     0.290560000000     0.623380000000     0.0391525  
H127     H      0.058490000000     0.243280000000     0.658380000000     0.0434872  
H128     H      0.041540000000     0.287210000000     0.624410000000     0.039019   
H129     H      0.134980000000     0.992130000000     0.799710000000     0.0369057  
H130     H      0.130950000000     0.444630000000     0.756910000000     0.0413552  
H131     H      0.101420000000     0.461220000000     0.708880000000     0.0372812  
H132     H      0.160750000000     0.024880000000     0.789820000000     0.0399605  
H133     H      0.100600000000     0.033930000000     0.780550000000     0.0391305  
H134     H      0.126170000000     0.041230000000     0.747080000000     0.0393369  
H135     H      0.157890000000     0.447040000000     0.723390000000     0.0407857  
H136     H      0.128960000000     0.493950000000     0.702820000000     0.0415545  
H137     H      0.386670000000     0.046050000000     0.739510000000     0.0387531  
H138     H      0.383640000000     0.501200000000     0.786910000000     0.0422727  
H139     H      0.353250000000     0.453220000000     0.770880000000     0.0402502  
H140     H      0.408820000000     0.034450000000     0.704970000000     0.0403234  
H141     H      0.346840000000     0.028950000000     0.702620000000     0.0399461  
H142     H      0.370120000000     0.995150000000     0.690730000000     0.0357671  
H143     H      0.410000000000     0.467380000000     0.781800000000     0.038521   
H144     H      0.377970000000     0.448950000000     0.735880000000     0.0417445  
H145     H      0.055080000000     0.369400000000     0.749850000000     0.0407625  
H146     H      0.011810000000     0.368160000000     0.797970000000     0.0347908  
H147     H      0.470810000000     0.406140000000     0.784690000000     0.0399344  
H148     H      0.045800000000     0.344350000000     0.716180000000     0.0377084  
H149     H      0.035690000000     0.402610000000     0.705660000000     0.0394051  
H150     H      0.499990000000     0.378520000000     0.702010000000     0.0419359  
H151     H      0.475950000000     0.345710000000     0.790970000000     0.0401558  
H152     H      0.457850000000     0.382880000000     0.751380000000     0.0389562  
H153     H      0.458080000000     0.130170000000     0.753770000000     0.0415531  
H154     H      0.504060000000     0.130720000000     0.799520000000     0.0396447  
H155     H      0.043610000000     0.092420000000     0.783310000000     0.0393438  
H156     H      0.465410000000     0.155800000000     0.720040000000     0.0394455  
H157     H      0.474820000000     0.098020000000     0.707700000000     0.0383119  
H158     H      0.010490000000     0.122010000000     0.702930000000     0.0371303  
H159     H      0.039660000000     0.152950000000     0.790650000000     0.0405005  
H160     H      0.055030000000     0.116100000000     0.749740000000     0.0386064  
H161     H      0.119650000000     0.502850000000     0.546420000000     0.0409498  
H162     H      0.122650000000     0.049540000000     0.502590000000     0.0403597  
H163     H      0.155530000000     0.031330000000     0.958610000000     0.0404206  
H164     H      0.091410000000     0.471220000000     0.538620000000     0.0404104  
H165     H      0.148970000000     0.455900000000     0.527360000000     0.0395644  
H166     H      0.123090000000     0.452770000000     0.993110000000     0.0398446  
H167     H      0.097380000000     0.045380000000     0.968380000000     0.0422258  
H168     H      0.127910000000     0.999740000000     0.950000000000     0.0365986  
H169     H      0.373880000000     0.453190000000     0.497280000000     0.0402143  
H170     H      0.367460000000     0.996310000000     0.544190000000     0.0363402  
H171     H      0.399000000000     0.042710000000     0.530550000000     0.0420115  
H172     H      0.348510000000     0.458920000000     0.962950000000     0.038641   
H173     H      0.405930000000     0.475550000000     0.953710000000     0.0408198  
H174     H      0.377680000000     0.507720000000     0.948510000000     0.0412059  
H175     H      0.340150000000     0.028570000000     0.537230000000     0.0397142  
H176     H      0.374520000000     0.050530000000     0.996410000000     0.0401017  
H177     H      0.004760000000     0.389130000000     0.953010000000     0.0401215  
H178     H      0.454780000000     0.390000000000     0.993280000000     0.039091   
H179     H      0.468220000000     0.357270000000     0.538720000000     0.0414216  
H180     H      0.037180000000     0.416280000000     0.961830000000     0.0405211  
H181     H      0.049820000000     0.359470000000     0.976240000000     0.0405318  
H182     H      0.050940000000     0.386070000000     0.509940000000     0.0396183  
H183     H      0.457910000000     0.415770000000     0.527130000000     0.0413663  
H184     H      0.500360000000     0.383490000000     0.549600000000     0.0398539  
H185     H      0.050240000000     0.142470000000     0.496770000000     0.0405797  
H186     H      0.002860000000     0.149590000000     0.952160000000     0.0333649  
H187     H      0.464900000000     0.108700000000     0.964110000000     0.0417375  
H188     H      0.043840000000     0.163930000000     0.533400000000     0.0386357  
H189     H      0.034120000000     0.105410000000     0.539290000000     0.0413995  
H190     H      0.498640000000     0.128750000000     0.547270000000     0.0420568  
H191     H      0.467640000000     0.170030000000     0.965370000000     0.041052   
H192     H      0.453090000000     0.127620000000     0.000360000000     0.0386268  
H193     H      0.299460000000     0.516800000000     0.366360000000     0.0386308  
H194     H      0.292830000000     0.954940000000     0.367980000000     0.0379431  
H195     H      0.246500000000     0.939760000000     0.400030000000     0.0439857  
H196     H      0.273110000000     0.539350000000     0.341260000000     0.0436452  
H197     H      0.258450000000     0.541830000000     0.398920000000     0.0432306  
H198     H      0.227030000000     0.526070000000     0.374340000000     0.0392396  
H199     H      0.262650000000     0.937060000000     0.343280000000     0.0433623  
H200     H      0.219960000000     0.961730000000     0.374620000000     0.0398673  
H201     H      0.274330000000     0.526530000000     0.114390000000     0.0391608  
H202     H      0.282970000000     0.961780000000     0.113370000000     0.0396422  
H203     H      0.245460000000     0.936860000000     0.150090000000     0.0432945  
H204     H      0.239640000000     0.541020000000     0.093640000000     0.0431769  
H205     H      0.232370000000     0.538790000000     0.152590000000     0.0436242  
H206     H      0.203670000000     0.515420000000     0.131000000000     0.0386467  
H207     H      0.253650000000     0.939380000000     0.091600000000     0.0439488  
H208     H      0.211760000000     0.953410000000     0.129230000000     0.0378428  
H209     H      0.038550000000     0.721800000000     0.376250000000     0.0384785  
H210     H      0.474360000000     0.724920000000     0.376880000000     0.0393507  
H211     H      0.457140000000     0.771050000000     0.407920000000     0.0433298  
H212     H      0.059300000000     0.748990000000     0.350570000000     0.0436635  
H213     H      0.060520000000     0.765600000000     0.407470000000     0.0434627  
H214     H      0.041750000000     0.794480000000     0.382080000000     0.0383658  
H215     H      0.455930000000     0.753940000000     0.351320000000     0.0432144  
H216     H      0.478660000000     0.797660000000     0.382170000000     0.0385133  
H217     H      0.473290000000     0.718600000000     0.134830000000     0.0387269  
H218     H      0.036880000000     0.714980000000     0.134550000000     0.0384852  
H219     H      0.059550000000     0.756330000000     0.100770000000     0.0432119  
H220     H      0.455280000000     0.749650000000     0.158090000000     0.0433609  
H221     H      0.456350000000     0.761310000000     0.099840000000     0.0435581  
H222     H      0.476810000000     0.790560000000     0.123380000000     0.0391243  
H223     H      0.058490000000     0.743280000000     0.158380000000     0.0435026  
H224     H      0.041540000000     0.787210000000     0.124410000000     0.0390122  
H225     H      0.134980000000     0.492130000000     0.299700000000     0.0396431  
H226     H      0.130950000000     0.944630000000     0.256910000000     0.0412908  
H227     H      0.101420000000     0.961220000000     0.208880000000     0.0371094  
H228     H      0.160750000000     0.524880000000     0.289820000000     0.0404635  
H229     H      0.100600000000     0.533930000000     0.280550000000     0.0385017  
H230     H      0.126170000000     0.541230000000     0.247080000000     0.0389798  
H231     H      0.157890000000     0.947040000000     0.223390000000     0.0407632  
H232     H      0.128960000000     0.993950000000     0.202820000000     0.0407615  
H233     H      0.386670000000     0.546050000000     0.239510000000     0.0382987  
H234     H      0.383640000000     0.001200000000     0.286920000000     0.0452864  
H235     H      0.353250000000     0.953220000000     0.270880000000     0.0397095  
H236     H      0.408820000000     0.534450000000     0.204970000000     0.0396692  
H237     H      0.346840000000     0.528950000000     0.202620000000     0.0406009  
H238     H      0.370120000000     0.495150000000     0.190730000000     0.0388023  
H239     H      0.410000000000     0.967380000000     0.281800000000     0.0390011  
H240     H      0.377970000000     0.948960000000     0.235880000000     0.041173   
H241     H      0.055080000000     0.869400000000     0.249860000000     0.0407692  
H242     H      0.011810000000     0.868160000000     0.297970000000     0.0347628  
H243     H      0.470810000000     0.906140000000     0.284680000000     0.0397362  
H244     H      0.045800000000     0.844350000000     0.216180000000     0.0377284  
H245     H      0.035690000000     0.902610000000     0.205660000000     0.039275   
H246     H      0.499990000000     0.878520000000     0.202010000000     0.0418149  
H247     H      0.475950000000     0.845710000000     0.290970000000     0.0401361  
H248     H      0.457850000000     0.882880000000     0.251380000000     0.0388457  
H249     H      0.458080000000     0.630170000000     0.253770000000     0.0415132  
H250     H      0.504060000000     0.630720000000     0.299520000000     0.0395546  
H251     H      0.043610000000     0.592420000000     0.283310000000     0.0391011  
H252     H      0.465410000000     0.655800000000     0.220040000000     0.0394394  
H253     H      0.474820000000     0.598020000000     0.207700000000     0.0382576  
H254     H      0.010490000000     0.622010000000     0.202930000000     0.0370745  
H255     H      0.039660000000     0.652950000000     0.290650000000     0.0404571  
H256     H      0.055030000000     0.616110000000     0.249740000000     0.0384897  
H257     H      0.119650000000     0.002850000000     0.046420000000     0.0439978  
H258     H      0.122650000000     0.549540000000     0.002590000000     0.040083   
H259     H      0.155530000000     0.531330000000     0.458610000000     0.0410759  
H260     H      0.091410000000     0.971220000000     0.038620000000     0.0408781  
H261     H      0.148970000000     0.955900000000     0.027360000000     0.0389987  
H262     H      0.123090000000     0.952770000000     0.493110000000     0.0394798  
H263     H      0.097380000000     0.545380000000     0.468380000000     0.0415773  
H264     H      0.127910000000     0.499740000000     0.450000000000     0.0396154  
H265     H      0.373880000000     0.953190000000     0.997280000000     0.0396708  
H266     H      0.367460000000     0.496310000000     0.044190000000     0.0393864  
H267     H      0.399000000000     0.542710000000     0.030550000000     0.041368   
H268     H      0.348510000000     0.958920000000     0.462950000000     0.0380293  
H269     H      0.405930000000     0.975550000000     0.453710000000     0.0412539  
H270     H      0.377680000000     0.007720000000     0.448510000000     0.0442037  
H271     H      0.340150000000     0.528580000000     0.037230000000     0.0403755  
H272     H      0.374520000000     0.550530000000     0.496410000000     0.0397899  
H273     H      0.004760000000     0.889130000000     0.453010000000     0.0400517  
H274     H      0.454780000000     0.890010000000     0.493280000000     0.0391465  
H275     H      0.468220000000     0.857270000000     0.038720000000     0.0414143  
H276     H      0.037180000000     0.916280000000     0.461830000000     0.0403276  
H277     H      0.049820000000     0.859470000000     0.476240000000     0.0404745  
H278     H      0.050940000000     0.886070000000     0.009940000000     0.0397036  
H279     H      0.457910000000     0.915770000000     0.027130000000     0.0410874  
H280     H      0.500360000000     0.883490000000     0.049600000000     0.0397213  
H281     H      0.050240000000     0.642470000000     0.996770000000     0.0403787  
H282     H      0.002860000000     0.649590000000     0.452160000000     0.033356   
H283     H      0.464900000000     0.608700000000     0.464110000000     0.0416341  
H284     H      0.043840000000     0.663930000000     0.033410000000     0.0385601  
H285     H      0.034120000000     0.605410000000     0.039290000000     0.0413644  
H286     H      0.498640000000     0.628750000000     0.047270000000     0.0420486  
H287     H      0.467640000000     0.670030000000     0.465370000000     0.0410841  
H288     H      0.453090000000     0.627620000000     0.500360000000     0.038423   
H289     H      0.299460000000     0.516800000000     0.866360000000     0.0386252  
H290     H      0.292830000000     0.954940000000     0.867980000000     0.0379427  
H291     H      0.246500000000     0.939760000000     0.900030000000     0.0439824  
H292     H      0.273110000000     0.539350000000     0.841260000000     0.0436366  
H293     H      0.258450000000     0.541830000000     0.898920000000     0.0432372  
H294     H      0.227030000000     0.526070000000     0.874340000000     0.0392482  
H295     H      0.262650000000     0.937060000000     0.843280000000     0.0433588  
H296     H      0.219960000000     0.961730000000     0.874620000000     0.039859   
H297     H      0.274330000000     0.526530000000     0.614390000000     0.0391508  
H298     H      0.282970000000     0.961780000000     0.613370000000     0.039629   
H299     H      0.245460000000     0.936860000000     0.650090000000     0.0432867  
H300     H      0.239640000000     0.541020000000     0.593640000000     0.0431565  
H301     H      0.232370000000     0.538790000000     0.652590000000     0.0436182  
H302     H      0.203670000000     0.515420000000     0.631000000000     0.0386389  
H303     H      0.253650000000     0.939380000000     0.591600000000     0.0439243  
H304     H      0.211760000000     0.953410000000     0.629230000000     0.0378315  
H305     H      0.038550000000     0.721800000000     0.876250000000     0.038483   
H306     H      0.474360000000     0.724920000000     0.876880000000     0.0393451  
H307     H      0.457140000000     0.771050000000     0.907920000000     0.0433176  
H308     H      0.059300000000     0.748990000000     0.850570000000     0.0436692  
H309     H      0.060520000000     0.765600000000     0.907470000000     0.0434574  
H310     H      0.041750000000     0.794480000000     0.882080000000     0.0383594  
H311     H      0.455930000000     0.753940000000     0.851320000000     0.0432108  
H312     H      0.478660000000     0.797660000000     0.882180000000     0.0385167  
H313     H      0.473290000000     0.718600000000     0.634830000000     0.0387191  
H314     H      0.036880000000     0.714980000000     0.634550000000     0.0384765  
H315     H      0.059550000000     0.756330000000     0.600770000000     0.0431968  
H316     H      0.455280000000     0.749650000000     0.658090000000     0.0433555  
H317     H      0.456350000000     0.761310000000     0.599840000000     0.0435438  
H318     H      0.476810000000     0.790560000000     0.623380000000     0.0391191  
H319     H      0.058490000000     0.743280000000     0.658380000000     0.0434949  
H320     H      0.041540000000     0.787210000000     0.624410000000     0.0390027  
H321     H      0.134980000000     0.492130000000     0.799710000000     0.0396214  
H322     H      0.130950000000     0.944630000000     0.756910000000     0.0412902  
H323     H      0.101420000000     0.961220000000     0.708880000000     0.0371066  
H324     H      0.160750000000     0.524880000000     0.789820000000     0.0404522  
H325     H      0.100600000000     0.533930000000     0.780550000000     0.0385042  
H326     H      0.126170000000     0.541230000000     0.747080000000     0.038983   
H327     H      0.157890000000     0.947040000000     0.723390000000     0.0407608  
H328     H      0.128960000000     0.993950000000     0.702820000000     0.0407564  
H329     H      0.386670000000     0.546050000000     0.739510000000     0.038301   
H330     H      0.383640000000     0.001200000000     0.786910000000     0.0453168  
H331     H      0.353250000000     0.953220000000     0.770880000000     0.0397039  
H332     H      0.408820000000     0.534450000000     0.704970000000     0.0396736  
H333     H      0.346840000000     0.528950000000     0.702620000000     0.0405968  
H334     H      0.370120000000     0.495150000000     0.690730000000     0.0387989  
H335     H      0.410000000000     0.967380000000     0.781800000000     0.0390195  
H336     H      0.377970000000     0.948960000000     0.735880000000     0.0411677  
H337     H      0.055080000000     0.869400000000     0.749850000000     0.0407575  
H338     H      0.011810000000     0.868160000000     0.797970000000     0.0347563  
H339     H      0.470810000000     0.906140000000     0.784690000000     0.0397313  
H340     H      0.045800000000     0.844350000000     0.716180000000     0.0377017  
H341     H      0.035690000000     0.902610000000     0.705660000000     0.0392669  
H342     H      0.499990000000     0.878520000000     0.702010000000     0.0418058  
H343     H      0.475950000000     0.845710000000     0.790970000000     0.0401363  
H344     H      0.457850000000     0.882880000000     0.751380000000     0.0388521  
H345     H      0.458080000000     0.630170000000     0.753770000000     0.0415125  
H346     H      0.504060000000     0.630720000000     0.799520000000     0.0395539  
H347     H      0.043610000000     0.592420000000     0.783310000000     0.0391007  
H348     H      0.465410000000     0.655800000000     0.720040000000     0.0394359  
H349     H      0.474820000000     0.598020000000     0.707700000000     0.0382563  
H350     H      0.010490000000     0.622010000000     0.702930000000     0.0370621  
H351     H      0.039660000000     0.652950000000     0.790650000000     0.040456   
H352     H      0.055030000000     0.616110000000     0.749740000000     0.0384878  
H353     H      0.119650000000     0.002850000000     0.546420000000     0.0439784  
H354     H      0.122650000000     0.549540000000     0.502590000000     0.0398735  
H355     H      0.155530000000     0.531330000000     0.958610000000     0.0410459  
H356     H      0.091410000000     0.971220000000     0.538620000000     0.0408384  
H357     H      0.148970000000     0.955900000000     0.527360000000     0.0390155  
H358     H      0.123090000000     0.952770000000     0.993110000000     0.0393191  
H359     H      0.097380000000     0.545380000000     0.968380000000     0.0416201  
H360     H      0.127910000000     0.499740000000     0.950000000000     0.0395871  
H361     H      0.373880000000     0.953190000000     0.497280000000     0.0396637  
H362     H      0.367460000000     0.496310000000     0.544190000000     0.0393389  
H363     H      0.399000000000     0.542710000000     0.530550000000     0.0414116  
H364     H      0.348510000000     0.958920000000     0.962950000000     0.0380566  
H365     H      0.405930000000     0.975550000000     0.953710000000     0.0412389  
H366     H      0.377680000000     0.007720000000     0.948510000000     0.0441823  
H367     H      0.340150000000     0.528580000000     0.537230000000     0.0403201  
H368     H      0.374520000000     0.550530000000     0.996410000000     0.0396311  
H369     H      0.004760000000     0.889130000000     0.953010000000     0.0400199  
H370     H      0.454780000000     0.890010000000     0.993280000000     0.0389946  
H371     H      0.468220000000     0.857270000000     0.538720000000     0.0413691  
H372     H      0.037180000000     0.916280000000     0.961830000000     0.0402951  
H373     H      0.049820000000     0.859470000000     0.976240000000     0.0405051  
H374     H      0.050940000000     0.886070000000     0.509940000000     0.0395035  
H375     H      0.457910000000     0.915770000000     0.527130000000     0.0411151  
H376     H      0.500360000000     0.883490000000     0.549600000000     0.0396926  
H377     H      0.050240000000     0.642470000000     0.496770000000     0.0405543  
H378     H      0.002860000000     0.649590000000     0.952160000000     0.0333198  
H379     H      0.464900000000     0.608700000000     0.964110000000     0.0416728  
H380     H      0.043840000000     0.663930000000     0.533400000000     0.0386228  
H381     H      0.034120000000     0.605410000000     0.539290000000     0.041332   
H382     H      0.498640000000     0.628750000000     0.547270000000     0.0420186  
H383     H      0.467640000000     0.670030000000     0.965370000000     0.0410401  
H384     H      0.453090000000     0.627620000000     0.000360000000     0.0386231  
H385     H      0.799460000000     0.016800000000     0.366360000000     0.0392243  
H386     H      0.792830000000     0.454940000000     0.367980000000     0.0383798  
H387     H      0.746500000000     0.439760000000     0.400030000000     0.0439723  
H388     H      0.773110000000     0.039350000000     0.341260000000     0.0435944  
H389     H      0.758450000000     0.041830000000     0.398920000000     0.0431601  
H390     H      0.727030000000     0.026070000000     0.374340000000     0.0396501  
H391     H      0.762650000000     0.437050000000     0.343280000000     0.0433196  
H392     H      0.719960000000     0.461730000000     0.374620000000     0.0402353  
H393     H      0.774330000000     0.026530000000     0.114390000000     0.039535   
H394     H      0.782970000000     0.461780000000     0.113370000000     0.0400182  
H395     H      0.745460000000     0.436860000000     0.150090000000     0.0432753  
H396     H      0.739640000000     0.041020000000     0.093640000000     0.0430655  
H397     H      0.732370000000     0.038790000000     0.152590000000     0.043584   
H398     H      0.703670000000     0.015420000000     0.131000000000     0.0392533  
H399     H      0.753640000000     0.439380000000     0.091600000000     0.0438958  
H400     H      0.711760000000     0.453410000000     0.129230000000     0.0382012  
H401     H      0.538550000000     0.221800000000     0.376250000000     0.0390433  
H402     H      0.974360000000     0.224920000000     0.376880000000     0.0402555  
H403     H      0.957140000000     0.271050000000     0.407920000000     0.0432294  
H404     H      0.559300000000     0.248990000000     0.350570000000     0.0435829  
H405     H      0.560520000000     0.265600000000     0.407470000000     0.0433756  
H406     H      0.541750000000     0.294480000000     0.382080000000     0.0389268  
H407     H      0.955930000000     0.253940000000     0.351320000000     0.0431238  
H408     H      0.978660000000     0.297670000000     0.382170000000     0.0394696  
H409     H      0.973290000000     0.218600000000     0.134830000000     0.0394774  
H410     H      0.536870000000     0.214980000000     0.134550000000     0.0391683  
H411     H      0.559550000000     0.256330000000     0.100770000000     0.0431556  
H412     H      0.955280000000     0.249650000000     0.158090000000     0.0432122  
H413     H      0.956350000000     0.261310000000     0.099840000000     0.0434217  
H414     H      0.976810000000     0.290560000000     0.123380000000     0.0399818  
H415     H      0.558490000000     0.243280000000     0.158380000000     0.0434443  
H416     H      0.541540000000     0.287210000000     0.124410000000     0.0396099  
H417     H      0.634970000000     0.992130000000     0.299700000000     0.0369657  
H418     H      0.630950000000     0.444630000000     0.256910000000     0.0413762  
H419     H      0.601420000000     0.461220000000     0.208880000000     0.0374015  
H420     H      0.660740000000     0.024880000000     0.289820000000     0.0399766  
H421     H      0.600600000000     0.033930000000     0.280550000000     0.0391744  
H422     H      0.626170000000     0.041230000000     0.247080000000     0.0393515  
H423     H      0.657890000000     0.447040000000     0.223390000000     0.0408061  
H424     H      0.628960000000     0.493950000000     0.202820000000     0.041639   
H425     H      0.886670000000     0.046050000000     0.239510000000     0.0390207  
H426     H      0.883640000000     0.501200000000     0.286920000000     0.0425249  
H427     H      0.853250000000     0.453220000000     0.270880000000     0.040348   
H428     H      0.908810000000     0.034450000000     0.204970000000     0.0407595  
H429     H      0.846840000000     0.028950000000     0.202620000000     0.0400151  
H430     H      0.870120000000     0.995150000000     0.190730000000     0.0359579  
H431     H      0.910000000000     0.467380000000     0.281800000000     0.0390067  
H432     H      0.877970000000     0.448950000000     0.235880000000     0.0419687  
H433     H      0.555080000000     0.369400000000     0.249860000000     0.0411611  
H434     H      0.511810000000     0.368160000000     0.297970000000     0.039406   
H435     H      0.970810000000     0.406140000000     0.284680000000     0.0412407  
H436     H      0.545800000000     0.344350000000     0.216180000000     0.0385118  
H437     H      0.535690000000     0.402610000000     0.205660000000     0.0385363  
H438     H      0.999990000000     0.378520000000     0.202010000000     0.0468315  
H439     H      0.975950000000     0.345710000000     0.290970000000     0.0393167  
H440     H      0.957850000000     0.382880000000     0.251380000000     0.0394061  
H441     H      0.958080000000     0.130170000000     0.253770000000     0.0423759  
H442     H      0.004070000000     0.130720000000     0.299520000000     0.0385219  
H443     H      0.543610000000     0.092420000000     0.283310000000     0.0395328  
H444     H      0.965410000000     0.155800000000     0.220040000000     0.0402565  
H445     H      0.974820000000     0.098020000000     0.207700000000     0.0377334  
H446     H      0.510490000000     0.122010000000     0.202930000000     0.0418604  
H447     H      0.539660000000     0.152950000000     0.290650000000     0.0405558  
H448     H      0.555030000000     0.116100000000     0.249740000000     0.0387568  
H449     H      0.619650000000     0.502850000000     0.046420000000     0.0411472  
H450     H      0.622650000000     0.049540000000     0.002590000000     0.0406513  
H451     H      0.655530000000     0.031330000000     0.458610000000     0.0404633  
H452     H      0.591410000000     0.471220000000     0.038620000000     0.0408169  
H453     H      0.648970000000     0.455900000000     0.027360000000     0.0395833  
H454     H      0.623090000000     0.452770000000     0.493110000000     0.0400784  
H455     H      0.597380000000     0.045380000000     0.468380000000     0.0424311  
H456     H      0.627910000000     0.999740000000     0.450000000000     0.0366682  
H457     H      0.873880000000     0.453190000000     0.997280000000     0.0403039  
H458     H      0.867460000000     0.996310000000     0.044190000000     0.0365083  
H459     H      0.899000000000     0.042710000000     0.030550000000     0.0422077  
H460     H      0.848510000000     0.458920000000     0.462950000000     0.0386891  
H461     H      0.905930000000     0.475550000000     0.453710000000     0.0412768  
H462     H      0.877680000000     0.507720000000     0.448510000000     0.0414731  
H463     H      0.840150000000     0.028570000000     0.037230000000     0.0398135  
H464     H      0.874520000000     0.050530000000     0.496410000000     0.0403612  
H465     H      0.504760000000     0.389130000000     0.453010000000     0.0408643  
H466     H      0.954770000000     0.390000000000     0.493280000000     0.0403352  
H467     H      0.968220000000     0.357270000000     0.038720000000     0.0403458  
H468     H      0.537180000000     0.416280000000     0.461830000000     0.0403611  
H469     H      0.549820000000     0.359470000000     0.476240000000     0.0407164  
H470     H      0.550940000000     0.386070000000     0.009940000000     0.0404362  
H471     H      0.957910000000     0.415770000000     0.027130000000     0.0422405  
H472     H      0.000360000000     0.383490000000     0.049600000000     0.0345591  
H473     H      0.550240000000     0.142470000000     0.996770000000     0.0413027  
H474     H      0.502860000000     0.149590000000     0.452160000000     0.0385242  
H475     H      0.964900000000     0.108700000000     0.464110000000     0.0429135  
H476     H      0.543840000000     0.163930000000     0.033410000000     0.0395126  
H477     H      0.534120000000     0.105410000000     0.039290000000     0.0402532  
H478     H      0.998640000000     0.128750000000     0.047270000000     0.047438   
H479     H      0.967640000000     0.170030000000     0.465370000000     0.0399782  
H480     H      0.953090000000     0.127620000000     0.500360000000     0.0392721  
H481     H      0.799460000000     0.016800000000     0.866360000000     0.0392193  
H482     H      0.792830000000     0.454940000000     0.867980000000     0.03838    
H483     H      0.746500000000     0.439760000000     0.900030000000     0.0439692  
H484     H      0.773110000000     0.039350000000     0.841260000000     0.0435858  
H485     H      0.758450000000     0.041830000000     0.898920000000     0.0431682  
H486     H      0.727030000000     0.026070000000     0.874340000000     0.0396597  
H487     H      0.762650000000     0.437050000000     0.843280000000     0.0433164  
H488     H      0.719960000000     0.461730000000     0.874620000000     0.0402273  
H489     H      0.774330000000     0.026530000000     0.614390000000     0.0395273  
H490     H      0.782970000000     0.461780000000     0.613370000000     0.0400072  
H491     H      0.745460000000     0.436860000000     0.650090000000     0.0432681  
H492     H      0.739640000000     0.041020000000     0.593640000000     0.0430467  
H493     H      0.732370000000     0.038790000000     0.652590000000     0.0435784  
H494     H      0.703670000000     0.015420000000     0.631000000000     0.0392485  
H495     H      0.753640000000     0.439380000000     0.591600000000     0.0438728  
H496     H      0.711760000000     0.453410000000     0.629230000000     0.0381919  
H497     H      0.538550000000     0.221800000000     0.876250000000     0.0390485  
H498     H      0.974360000000     0.224920000000     0.876880000000     0.0402501  
H499     H      0.957140000000     0.271050000000     0.907920000000     0.0432182  
H500     H      0.559300000000     0.248990000000     0.850570000000     0.0435889  
H501     H      0.560520000000     0.265600000000     0.907470000000     0.0433719  
H502     H      0.541750000000     0.294480000000     0.882080000000     0.0389212  
H503     H      0.955930000000     0.253940000000     0.851320000000     0.0431204  
H504     H      0.978660000000     0.297670000000     0.882180000000     0.0394735  
H505     H      0.973290000000     0.218600000000     0.634830000000     0.0394729  
H506     H      0.536870000000     0.214980000000     0.634550000000     0.0391625  
H507     H      0.559550000000     0.256330000000     0.600770000000     0.0431414  
H508     H      0.955280000000     0.249650000000     0.658090000000     0.0432069  
H509     H      0.956350000000     0.261310000000     0.599840000000     0.0434079  
H510     H      0.976810000000     0.290560000000     0.623380000000     0.0399793  
H511     H      0.558490000000     0.243280000000     0.658380000000     0.0434371  
H512     H      0.541540000000     0.287210000000     0.624410000000     0.0396027  
H513     H      0.634970000000     0.992130000000     0.799710000000     0.0369416  
H514     H      0.630950000000     0.444630000000     0.756910000000     0.0413759  
H515     H      0.601420000000     0.461220000000     0.708880000000     0.0374     
H516     H      0.660740000000     0.024880000000     0.789820000000     0.0399653  
H517     H      0.600600000000     0.033930000000     0.780550000000     0.0391777  
H518     H      0.626170000000     0.041230000000     0.747080000000     0.0393556  
H519     H      0.657890000000     0.447040000000     0.723390000000     0.0408042  
H520     H      0.628960000000     0.493950000000     0.702820000000     0.0416364  
H521     H      0.886670000000     0.046050000000     0.739510000000     0.0390244  
H522     H      0.883640000000     0.501200000000     0.786910000000     0.0425483  
H523     H      0.853250000000     0.453220000000     0.770880000000     0.0403437  
H524     H      0.908810000000     0.034450000000     0.704970000000     0.0407671  
H525     H      0.846840000000     0.028950000000     0.702620000000     0.0400099  
H526     H      0.870120000000     0.995150000000     0.690730000000     0.0359472  
H527     H      0.910000000000     0.467380000000     0.781800000000     0.0390237  
H528     H      0.877970000000     0.448950000000     0.735880000000     0.0419655  
H529     H      0.555080000000     0.369400000000     0.749850000000     0.0411505  
H530     H      0.511810000000     0.368160000000     0.797970000000     0.0394052  
H531     H      0.970810000000     0.406140000000     0.784690000000     0.0412373  
H532     H      0.545800000000     0.344350000000     0.716180000000     0.0384869  
H533     H      0.535690000000     0.402610000000     0.705660000000     0.0385274  
H534     H      0.999990000000     0.378520000000     0.702010000000     0.0468334  
H535     H      0.975950000000     0.345710000000     0.790970000000     0.0393157  
H536     H      0.957850000000     0.382880000000     0.751380000000     0.0394137  
H537     H      0.958080000000     0.130170000000     0.753770000000     0.0423765  
H538     H      0.004070000000     0.130720000000     0.799520000000     0.03852    
H539     H      0.543610000000     0.092420000000     0.783310000000     0.0395331  
H540     H      0.965410000000     0.155800000000     0.720040000000     0.0402553  
H541     H      0.974820000000     0.098020000000     0.707700000000     0.0377314  
H542     H      0.510490000000     0.122010000000     0.702930000000     0.0418586  
H543     H      0.539660000000     0.152950000000     0.790650000000     0.0405548  
H544     H      0.555030000000     0.116100000000     0.749740000000     0.0387558  
H545     H      0.619650000000     0.502850000000     0.546420000000     0.0411143  
H546     H      0.622650000000     0.049540000000     0.502590000000     0.0404683  
H547     H      0.655530000000     0.031330000000     0.958610000000     0.0404377  
H548     H      0.591410000000     0.471220000000     0.538620000000     0.0407794  
H549     H      0.648970000000     0.455900000000     0.527360000000     0.0396012  
H550     H      0.623090000000     0.452770000000     0.993110000000     0.0399289  
H551     H      0.597380000000     0.045380000000     0.968380000000     0.0424682  
H552     H      0.627910000000     0.999740000000     0.950000000000     0.0366439  
H553     H      0.873880000000     0.453190000000     0.497280000000     0.0402982  
H554     H      0.867460000000     0.996310000000     0.544190000000     0.0364485  
H555     H      0.899000000000     0.042710000000     0.530550000000     0.0422507  
H556     H      0.848510000000     0.458920000000     0.962950000000     0.0387152  
H557     H      0.905930000000     0.475550000000     0.953710000000     0.0412627  
H558     H      0.877680000000     0.507720000000     0.948510000000     0.0414525  
H559     H      0.840150000000     0.028570000000     0.537230000000     0.0397594  
H560     H      0.874520000000     0.050530000000     0.996410000000     0.0402188  
H561     H      0.504760000000     0.389130000000     0.953010000000     0.0408353  
H562     H      0.954770000000     0.390000000000     0.993280000000     0.0401905  
H563     H      0.968220000000     0.357270000000     0.538720000000     0.0402978  
H564     H      0.537180000000     0.416280000000     0.961830000000     0.0403322  
H565     H      0.549820000000     0.359470000000     0.976240000000     0.0407445  
H566     H      0.550940000000     0.386070000000     0.509940000000     0.0402566  
H567     H      0.957910000000     0.415770000000     0.527130000000     0.0422714  
H568     H      0.000360000000     0.383490000000     0.549600000000     0.0345068  
H569     H      0.550240000000     0.142470000000     0.496770000000     0.0414595  
H570     H      0.502860000000     0.149590000000     0.952160000000     0.0384875  
H571     H      0.964900000000     0.108700000000     0.964110000000     0.0429483  
H572     H      0.543840000000     0.163930000000     0.533400000000     0.0395732  
H573     H      0.534120000000     0.105410000000     0.539290000000     0.04022    
H574     H      0.998640000000     0.128750000000     0.547270000000     0.0474337  
H575     H      0.967640000000     0.170030000000     0.965370000000     0.0399381  
H576     H      0.953090000000     0.127620000000     0.000360000000     0.0394516  
H577     H      0.799460000000     0.516800000000     0.366360000000     0.0387338  
H578     H      0.792830000000     0.954940000000     0.367980000000     0.0380153  
H579     H      0.746500000000     0.939760000000     0.400030000000     0.0440004  
H580     H      0.773110000000     0.539350000000     0.341260000000     0.0436854  
H581     H      0.758450000000     0.541830000000     0.398920000000     0.0432474  
H582     H      0.727030000000     0.526070000000     0.374340000000     0.0392356  
H583     H      0.762650000000     0.937060000000     0.343280000000     0.0433728  
H584     H      0.719960000000     0.961730000000     0.374620000000     0.0398766  
H585     H      0.774330000000     0.526530000000     0.114390000000     0.0391853  
H586     H      0.782970000000     0.961780000000     0.113370000000     0.0396797  
H587     H      0.745460000000     0.936860000000     0.150090000000     0.043301   
H588     H      0.739640000000     0.541020000000     0.093640000000     0.0431846  
H589     H      0.732370000000     0.538790000000     0.152590000000     0.0436331  
H590     H      0.703670000000     0.515420000000     0.131000000000     0.038681   
H591     H      0.753640000000     0.939380000000     0.091600000000     0.0439563  
H592     H      0.711760000000     0.953410000000     0.129230000000     0.0378617  
H593     H      0.538550000000     0.721800000000     0.376250000000     0.0390245  
H594     H      0.974360000000     0.724920000000     0.376880000000     0.04024    
H595     H      0.957140000000     0.771050000000     0.407920000000     0.0432339  
H596     H      0.559300000000     0.748990000000     0.350570000000     0.043581   
H597     H      0.560520000000     0.765600000000     0.407470000000     0.0433755  
H598     H      0.541750000000     0.794480000000     0.382080000000     0.0389155  
H599     H      0.955930000000     0.753940000000     0.351320000000     0.0431202  
H600     H      0.978660000000     0.797660000000     0.382170000000     0.0394641  
H601     H      0.973290000000     0.718600000000     0.134830000000     0.0394784  
H602     H      0.536870000000     0.714980000000     0.134550000000     0.039175   
H603     H      0.559550000000     0.756330000000     0.100770000000     0.0431581  
H604     H      0.955280000000     0.749650000000     0.158090000000     0.0432121  
H605     H      0.956350000000     0.761310000000     0.099840000000     0.0434178  
H606     H      0.976810000000     0.790560000000     0.123380000000     0.0399469  
H607     H      0.558490000000     0.743280000000     0.158380000000     0.0434524  
H608     H      0.541540000000     0.787210000000     0.124410000000     0.039592   
H609     H      0.634970000000     0.492130000000     0.299700000000     0.0396903  
H610     H      0.630950000000     0.944630000000     0.256910000000     0.0413094  
H611     H      0.601420000000     0.961220000000     0.208880000000     0.0372203  
H612     H      0.660740000000     0.524880000000     0.289820000000     0.0404732  
H613     H      0.600600000000     0.533930000000     0.280550000000     0.0385531  
H614     H      0.626170000000     0.541230000000     0.247080000000     0.0390012  
H615     H      0.657890000000     0.947040000000     0.223390000000     0.0407766  
H616     H      0.628960000000     0.993950000000     0.202820000000     0.0408342  
H617     H      0.886670000000     0.546050000000     0.239510000000     0.0385692  
H618     H      0.883640000000     0.001200000000     0.286920000000     0.0455647  
H619     H      0.853250000000     0.953220000000     0.270880000000     0.0398027  
H620     H      0.908810000000     0.534450000000     0.204970000000     0.0401114  
H621     H      0.846840000000     0.528950000000     0.202620000000     0.040666   
H622     H      0.870120000000     0.495150000000     0.190730000000     0.0389867  
H623     H      0.910000000000     0.967380000000     0.281800000000     0.0395023  
H624     H      0.877970000000     0.948960000000     0.235880000000     0.0413924  
H625     H      0.555080000000     0.869400000000     0.249860000000     0.041155   
H626     H      0.511810000000     0.868160000000     0.297970000000     0.0393576  
H627     H      0.970810000000     0.906140000000     0.284680000000     0.0410334  
H628     H      0.545800000000     0.844350000000     0.216180000000     0.0385027  
H629     H      0.535690000000     0.902610000000     0.205660000000     0.0384002  
H630     H      0.999990000000     0.878520000000     0.202010000000     0.0466875  
H631     H      0.975950000000     0.845710000000     0.290970000000     0.0392999  
H632     H      0.957850000000     0.882880000000     0.251380000000     0.0393011  
H633     H      0.958080000000     0.630170000000     0.253770000000     0.0423361  
H634     H      0.004070000000     0.630720000000     0.299520000000     0.0384318  
H635     H      0.543610000000     0.592420000000     0.283310000000     0.0392895  
H636     H      0.965410000000     0.655800000000     0.220040000000     0.0402471  
H637     H      0.974820000000     0.598020000000     0.207700000000     0.0376782  
H638     H      0.510490000000     0.622010000000     0.202930000000     0.0417938  
H639     H      0.539660000000     0.652950000000     0.290650000000     0.0405114  
H640     H      0.555030000000     0.616110000000     0.249740000000     0.0386383  
H641     H      0.619650000000     0.002850000000     0.046420000000     0.0441693  
H642     H      0.622650000000     0.549540000000     0.002590000000     0.0401771  
H643     H      0.655530000000     0.531330000000     0.458610000000     0.0410937  
H644     H      0.591410000000     0.971220000000     0.038620000000     0.041243   
H645     H      0.648970000000     0.955900000000     0.027360000000     0.0390346  
H646     H      0.623090000000     0.952770000000     0.493110000000     0.0395511  
H647     H      0.597380000000     0.545380000000     0.468380000000     0.0418209  
H648     H      0.627910000000     0.499740000000     0.450000000000     0.039671   
H649     H      0.873880000000     0.953190000000     0.997280000000     0.0397648  
H650     H      0.867460000000     0.496310000000     0.044190000000     0.0394974  
H651     H      0.899000000000     0.542710000000     0.030550000000     0.0416078  
H652     H      0.848510000000     0.958920000000     0.462950000000     0.0381129  
H653     H      0.905930000000     0.975550000000     0.453710000000     0.0416921  
H654     H      0.877680000000     0.007720000000     0.448510000000     0.0444489  
H655     H      0.840150000000     0.528580000000     0.037230000000     0.040419   
H656     H      0.874520000000     0.550530000000     0.496410000000     0.0398996  
H657     H      0.504760000000     0.889130000000     0.453010000000     0.0407608  
H658     H      0.954770000000     0.890010000000     0.493280000000     0.040239   
H659     H      0.968220000000     0.857270000000     0.038720000000     0.0402984  
H660     H      0.537180000000     0.916280000000     0.461830000000     0.0401348  
H661     H      0.549820000000     0.859470000000     0.476240000000     0.0406882  
H662     H      0.550940000000     0.886070000000     0.009940000000     0.0403232  
H663     H      0.957910000000     0.915770000000     0.027130000000     0.0419866  
H664     H      0.000360000000     0.883490000000     0.049600000000     0.034417   
H665     H      0.550240000000     0.642470000000     0.996770000000     0.0412692  
H666     H      0.502860000000     0.649590000000     0.452160000000     0.0384799  
H667     H      0.964900000000     0.608700000000     0.464110000000     0.0428469  
H668     H      0.543840000000     0.663930000000     0.033410000000     0.0394974  
H669     H      0.534120000000     0.605410000000     0.039290000000     0.0401877  
H670     H      0.998640000000     0.628750000000     0.047270000000     0.0474027  
H671     H      0.967640000000     0.670030000000     0.465370000000     0.0399687  
H672     H      0.953090000000     0.627620000000     0.500360000000     0.0392583  
H673     H      0.799460000000     0.516800000000     0.866360000000     0.0387283  
H674     H      0.792830000000     0.954940000000     0.867980000000     0.0380151  
H675     H      0.746500000000     0.939760000000     0.900030000000     0.0439973  
H676     H      0.773110000000     0.539350000000     0.841260000000     0.043677   
H677     H      0.758450000000     0.541830000000     0.898920000000     0.0432544  
H678     H      0.727030000000     0.526070000000     0.874340000000     0.0392443  
H679     H      0.762650000000     0.937060000000     0.843280000000     0.0433695  
H680     H      0.719960000000     0.961730000000     0.874620000000     0.0398683  
H681     H      0.774330000000     0.526530000000     0.614390000000     0.0391759  
H682     H      0.782970000000     0.961780000000     0.613370000000     0.0396671  
H683     H      0.745460000000     0.936860000000     0.650090000000     0.0432936  
H684     H      0.739640000000     0.541020000000     0.593640000000     0.0431652  
H685     H      0.732370000000     0.538790000000     0.652590000000     0.0436274  
H686     H      0.703670000000     0.515420000000     0.631000000000     0.0386737  
H687     H      0.753640000000     0.939380000000     0.591600000000     0.0439329  
H688     H      0.711760000000     0.953410000000     0.629230000000     0.0378509  
H689     H      0.538550000000     0.721800000000     0.876250000000     0.0390293  
H690     H      0.974360000000     0.724920000000     0.876880000000     0.0402344  
H691     H      0.957140000000     0.771050000000     0.907920000000     0.0432223  
H692     H      0.559300000000     0.748990000000     0.850570000000     0.0435868  
H693     H      0.560520000000     0.765600000000     0.907470000000     0.0433714  
H694     H      0.541750000000     0.794480000000     0.882080000000     0.0389097  
H695     H      0.955930000000     0.753940000000     0.851320000000     0.0431167  
H696     H      0.978660000000     0.797660000000     0.882180000000     0.0394678  
H697     H      0.973290000000     0.718600000000     0.634830000000     0.0394735  
H698     H      0.536870000000     0.714980000000     0.634550000000     0.0391688  
H699     H      0.559550000000     0.756330000000     0.600770000000     0.0431434  
H700     H      0.955280000000     0.749650000000     0.658090000000     0.0432066  
H701     H      0.956350000000     0.761310000000     0.599840000000     0.0434035  
H702     H      0.976810000000     0.790560000000     0.623380000000     0.0399441  
H703     H      0.558490000000     0.743280000000     0.658380000000     0.043445   
H704     H      0.541540000000     0.787210000000     0.624410000000     0.0395845  
H705     H      0.634970000000     0.492130000000     0.799710000000     0.0396686  
H706     H      0.630950000000     0.944630000000     0.756910000000     0.0413089  
H707     H      0.601420000000     0.961220000000     0.708880000000     0.037218   
H708     H      0.660740000000     0.524880000000     0.789820000000     0.040462   
H709     H      0.600600000000     0.533930000000     0.780550000000     0.0385558  
H710     H      0.626170000000     0.541230000000     0.747080000000     0.0390045  
H711     H      0.657890000000     0.947040000000     0.723390000000     0.0407744  
H712     H      0.628960000000     0.993950000000     0.702820000000     0.0408295  
H713     H      0.886670000000     0.546050000000     0.739510000000     0.0385719  
H714     H      0.883640000000     0.001200000000     0.786910000000     0.0455953  
H715     H      0.853250000000     0.953220000000     0.770880000000     0.0397974  
H716     H      0.908810000000     0.534450000000     0.704970000000     0.0401169  
H717     H      0.846840000000     0.528950000000     0.702620000000     0.0406623  
H718     H      0.870120000000     0.495150000000     0.690730000000     0.0389839  
H719     H      0.910000000000     0.967380000000     0.781800000000     0.0395211  
H720     H      0.877970000000     0.948960000000     0.735880000000     0.0413876  
H721     H      0.555080000000     0.869400000000     0.749850000000     0.0411443  
H722     H      0.511810000000     0.868160000000     0.797970000000     0.0393567  
H723     H      0.970810000000     0.906140000000     0.784690000000     0.0410297  
H724     H      0.545800000000     0.844350000000     0.716180000000     0.0384777  
H725     H      0.535690000000     0.902610000000     0.705660000000     0.0383908  
H726     H      0.999990000000     0.878520000000     0.702010000000     0.0466888  
H727     H      0.975950000000     0.845710000000     0.790970000000     0.0392989  
H728     H      0.957850000000     0.882880000000     0.751380000000     0.0393083  
H729     H      0.958080000000     0.630170000000     0.753770000000     0.0423365  
H730     H      0.004070000000     0.630720000000     0.799520000000     0.0384298  
H731     H      0.543610000000     0.592420000000     0.783310000000     0.0392894  
H732     H      0.965410000000     0.655800000000     0.720040000000     0.0402457  
H733     H      0.974820000000     0.598020000000     0.707700000000     0.037676   
H734     H      0.510490000000     0.622010000000     0.702930000000     0.0417917  
H735     H      0.539660000000     0.652950000000     0.790650000000     0.0405103  
H736     H      0.555030000000     0.616110000000     0.749740000000     0.0386369  
H737     H      0.619650000000     0.002850000000     0.546420000000     0.0441527  
H738     H      0.622650000000     0.549540000000     0.502590000000     0.0399807  
H739     H      0.655530000000     0.531330000000     0.958610000000     0.0410657  
H740     H      0.591410000000     0.971220000000     0.538620000000     0.041207   
H741     H      0.648970000000     0.955900000000     0.527360000000     0.0390499  
H742     H      0.623090000000     0.952770000000     0.993110000000     0.0394007  
H743     H      0.597380000000     0.545380000000     0.968380000000     0.0418607  
H744     H      0.627910000000     0.499740000000     0.950000000000     0.0396447  
H745     H      0.873880000000     0.953190000000     0.497280000000     0.0397582  
H746     H      0.867460000000     0.496310000000     0.544190000000     0.0394524  
H747     H      0.899000000000     0.542710000000     0.530550000000     0.0416505  
H748     H      0.848510000000     0.958920000000     0.962950000000     0.0381391  
H749     H      0.905930000000     0.975550000000     0.953710000000     0.0416774  
H750     H      0.877680000000     0.007720000000     0.948510000000     0.0444286  
H751     H      0.840150000000     0.528580000000     0.537230000000     0.0403661  
H752     H      0.874520000000     0.550530000000     0.996410000000     0.0397477  
H753     H      0.504760000000     0.889130000000     0.953010000000     0.0407309  
H754     H      0.954770000000     0.890010000000     0.993280000000     0.0400906  
H755     H      0.968220000000     0.857270000000     0.538720000000     0.0402492  
H756     H      0.537180000000     0.916280000000     0.961830000000     0.0401055  
H757     H      0.549820000000     0.859470000000     0.976240000000     0.0407169  
H758     H      0.550940000000     0.886070000000     0.509940000000     0.0401387  
H759     H      0.957910000000     0.915770000000     0.527130000000     0.0420173  
H760     H      0.000360000000     0.883490000000     0.549600000000     0.0343635  
H761     H      0.550240000000     0.642470000000     0.496770000000     0.0414344  
H762     H      0.502860000000     0.649590000000     0.952160000000     0.0384413  
H763     H      0.964900000000     0.608700000000     0.964110000000     0.0428838  
H764     H      0.543840000000     0.663930000000     0.533400000000     0.0395604  
H765     H      0.534120000000     0.605410000000     0.539290000000     0.0401525  
H766     H      0.998640000000     0.628750000000     0.547270000000     0.0473967  
H767     H      0.967640000000     0.670030000000     0.965370000000     0.0399262  
H768     H      0.953090000000     0.627620000000     0.000360000000     0.0394478  
N1       N      0.249740000000     0.491210000000     0.402730000000    -0.17004    
N2       N      0.268500000000     0.488050000000     0.338810000000    -0.170424   
N3       N      0.238400000000     0.487640000000     0.154850000000    -0.170457   
N4       N      0.249480000000     0.490730000000     0.089100000000    -0.170207   
N5       N      0.508920000000     0.269460000000     0.411040000000    -0.170882   
N6       N      0.007460000000     0.249410000000     0.347710000000    -0.172166   
N7       N      0.508130000000     0.261170000000     0.096980000000    -0.170361   
N8       N      0.006780000000     0.245060000000     0.161640000000    -0.171915   
N9       N      0.098880000000     0.499230000000     0.242890000000    -0.1717     
N10      N      0.161810000000     0.484670000000     0.258030000000    -0.171038   
N11      N      0.347450000000     0.489240000000     0.234950000000    -0.170772   
N12      N      0.411870000000     0.503020000000     0.245210000000    -0.171194   
N13      N      0.501430000000     0.406910000000     0.243500000000    -0.170741   
N14      N      0.512520000000     0.342530000000     0.254990000000    -0.170745   
N15      N      0.510730000000     0.092810000000     0.243860000000    -0.171398   
N16      N      0.500990000000     0.156860000000     0.256960000000    -0.171088   
N17      N      0.154770000000     0.992070000000     0.991720000000    -0.172158   
N18      N      0.091800000000     0.009830000000     0.005000000000    -0.168055   
N19      N      0.405010000000     0.010910000000     0.990740000000    -0.168351   
N20      N      0.341940000000     0.992100000000     0.001200000000    -0.172242   
N21      N      0.010350000000     0.355840000000     0.509000000000    -0.173318   
N22      N      0.996380000000     0.418490000000     0.492980000000    -0.168722   
N23      N      0.997580000000     0.104190000000     0.503410000000    -0.167107   
N24      N      0.007670000000     0.169850000000     0.497630000000    -0.173088   
N25      N      0.249740000000     0.491210000000     0.902740000000    -0.170117   
N26      N      0.268500000000     0.488050000000     0.838820000000    -0.170346   
N27      N      0.238400000000     0.487640000000     0.654850000000    -0.170458   
N28      N      0.249480000000     0.490730000000     0.589100000000    -0.17022    
N29      N      0.508920000000     0.269460000000     0.911040000000    -0.170892   
N30      N      0.007460000000     0.249410000000     0.847710000000    -0.172158   
N31      N      0.508130000000     0.261170000000     0.596980000000    -0.17036    
N32      N      0.006780000000     0.245060000000     0.661640000000    -0.171927   
N33      N      0.098880000000     0.499230000000     0.742890000000    -0.171698   
N34      N      0.161810000000     0.484670000000     0.758030000000    -0.171043   
N35      N      0.347450000000     0.489240000000     0.734950000000    -0.170776   
N36      N      0.411870000000     0.503020000000     0.745210000000    -0.171137   
N37      N      0.501430000000     0.406910000000     0.743490000000    -0.170744   
N38      N      0.512520000000     0.342530000000     0.754990000000    -0.170756   
N39      N      0.510730000000     0.092810000000     0.743860000000    -0.171397   
N40      N      0.500990000000     0.156860000000     0.756960000000    -0.171089   
N41      N      0.154770000000     0.992070000000     0.491720000000    -0.172054   
N42      N      0.091800000000     0.009830000000     0.505000000000    -0.168141   
N43      N      0.405010000000     0.010910000000     0.490740000000    -0.168226   
N44      N      0.341940000000     0.992100000000     0.501200000000    -0.172479   
N45      N      0.010350000000     0.355840000000     0.009000000000    -0.173185   
N46      N      0.996380000000     0.418490000000     0.992980000000    -0.168807   
N47      N      0.997580000000     0.104190000000     0.003410000000    -0.167075   
N48      N      0.007670000000     0.169850000000     0.997630000000    -0.17331    
N49      N      0.249740000000     0.991210000000     0.402730000000    -0.170867   
N50      N      0.268500000000     0.988050000000     0.338810000000    -0.171244   
N51      N      0.238400000000     0.987640000000     0.154850000000    -0.171259   
N52      N      0.249480000000     0.990730000000     0.089100000000    -0.171036   
N53      N      0.508920000000     0.769460000000     0.411040000000    -0.170879   
N54      N      0.007460000000     0.749410000000     0.347710000000    -0.172169   
N55      N      0.508130000000     0.761170000000     0.096980000000    -0.170361   
N56      N      0.006780000000     0.745060000000     0.161640000000    -0.171901   
N57      N      0.098880000000     0.999230000000     0.242890000000    -0.172862   
N58      N      0.161820000000     0.984680000000     0.258030000000    -0.172232   
N59      N      0.347450000000     0.989240000000     0.234950000000    -0.172318   
N60      N      0.411870000000     0.003020000000     0.245210000000    -0.169149   
N61      N      0.501430000000     0.906910000000     0.243500000000    -0.170839   
N62      N      0.512520000000     0.842530000000     0.254990000000    -0.17067    
N63      N      0.510730000000     0.592810000000     0.243860000000    -0.171419   
N64      N      0.500990000000     0.656860000000     0.256960000000    -0.171093   
N65      N      0.154770000000     0.492070000000     0.991720000000    -0.170647   
N66      N      0.091800000000     0.509830000000     0.005000000000    -0.169977   
N67      N      0.405010000000     0.510910000000     0.990740000000    -0.1703     
N68      N      0.341940000000     0.492100000000     0.001200000000    -0.170727   
N69      N      0.010350000000     0.855840000000     0.509000000000    -0.17332    
N70      N      0.996380000000     0.918490000000     0.492980000000    -0.168922   
N71      N      0.997580000000     0.604190000000     0.503410000000    -0.16709    
N72      N      0.007670000000     0.669850000000     0.497630000000    -0.173089   
N73      N      0.249740000000     0.991210000000     0.902740000000    -0.170943   
N74      N      0.268500000000     0.988050000000     0.838820000000    -0.171168   
N75      N      0.238400000000     0.987640000000     0.654850000000    -0.171263   
N76      N      0.249480000000     0.990730000000     0.589100000000    -0.171052   
N77      N      0.508920000000     0.769460000000     0.911040000000    -0.17089    
N78      N      0.007460000000     0.749410000000     0.847710000000    -0.172161   
N79      N      0.508130000000     0.761170000000     0.596980000000    -0.17036    
N80      N      0.006780000000     0.745060000000     0.661640000000    -0.171913   
N81      N      0.098880000000     0.999230000000     0.742890000000    -0.172862   
N82      N      0.161820000000     0.984680000000     0.758030000000    -0.172238   
N83      N      0.347450000000     0.989240000000     0.734950000000    -0.172326   
N84      N      0.411870000000     0.003020000000     0.745210000000    -0.169087   
N85      N      0.501430000000     0.906910000000     0.743490000000    -0.170842   
N86      N      0.512520000000     0.842530000000     0.754990000000    -0.170682   
N87      N      0.510730000000     0.592810000000     0.743860000000    -0.171419   
N88      N      0.500990000000     0.656860000000     0.756960000000    -0.171095   
N89      N      0.154770000000     0.492070000000     0.491720000000    -0.170541   
N90      N      0.091800000000     0.509830000000     0.505000000000    -0.170077   
N91      N      0.405010000000     0.510910000000     0.490740000000    -0.170172   
N92      N      0.341940000000     0.492100000000     0.501200000000    -0.170956   
N93      N      0.010350000000     0.855840000000     0.009000000000    -0.173185   
N94      N      0.996380000000     0.918490000000     0.992980000000    -0.169008   
N95      N      0.997580000000     0.604190000000     0.003410000000    -0.167053   
N96      N      0.007670000000     0.669850000000     0.997630000000    -0.17332    
N97      N      0.749740000000     0.491210000000     0.402730000000    -0.170032   
N98      N      0.768500000000     0.488050000000     0.338810000000    -0.17041    
N99      N      0.738400000000     0.487640000000     0.154850000000    -0.170454   
N100     N      0.749480000000     0.490730000000     0.089100000000    -0.170204   
N101     N      0.008920000000     0.269460000000     0.411040000000    -0.172284   
N102     N      0.507460000000     0.249410000000     0.347710000000    -0.170759   
N103     N      0.008130000000     0.261170000000     0.096980000000    -0.171787   
N104     N      0.506780000000     0.245060000000     0.161640000000    -0.170474   
N105     N      0.598880000000     0.499230000000     0.242890000000    -0.171735   
N106     N      0.661820000000     0.484670000000     0.258030000000    -0.17112    
N107     N      0.847450000000     0.489240000000     0.234950000000    -0.170758   
N108     N      0.911870000000     0.503020000000     0.245210000000    -0.17083    
N109     N      0.001430000000     0.406910000000     0.243500000000    -0.17198    
N110     N      0.012520000000     0.342530000000     0.254990000000    -0.173073   
N111     N      0.010730000000     0.092810000000     0.243860000000    -0.17417    
N112     N      0.000990000000     0.156860000000     0.256960000000    -0.172194   
N113     N      0.654770000000     0.992070000000     0.991720000000    -0.172164   
N114     N      0.591800000000     0.009830000000     0.005000000000    -0.167885   
N115     N      0.905010000000     0.010910000000     0.990740000000    -0.168177   
N116     N      0.841940000000     0.992100000000     0.001200000000    -0.172253   
N117     N      0.510350000000     0.355840000000     0.509000000000    -0.171024   
N118     N      0.496380000000     0.418490000000     0.492980000000    -0.170806   
N119     N      0.497580000000     0.104190000000     0.503410000000    -0.169855   
N120     N      0.507670000000     0.169850000000     0.497630000000    -0.170413   
N121     N      0.749740000000     0.491210000000     0.902740000000    -0.170108   
N122     N      0.768500000000     0.488050000000     0.838820000000    -0.170332   
N123     N      0.738400000000     0.487640000000     0.654850000000    -0.170454   
N124     N      0.749480000000     0.490730000000     0.589100000000    -0.170217   
N125     N      0.008920000000     0.269460000000     0.911040000000    -0.172296   
N126     N      0.507460000000     0.249410000000     0.847710000000    -0.17075    
N127     N      0.008130000000     0.261170000000     0.596980000000    -0.171791   
N128     N      0.506780000000     0.245060000000     0.661640000000    -0.170481   
N129     N      0.598880000000     0.499230000000     0.742890000000    -0.171733   
N130     N      0.661820000000     0.484670000000     0.758030000000    -0.171125   
N131     N      0.847450000000     0.489240000000     0.734950000000    -0.170762   
N132     N      0.911870000000     0.503020000000     0.745210000000    -0.170772   
N133     N      0.001430000000     0.406910000000     0.743490000000    -0.171984   
N134     N      0.012520000000     0.342530000000     0.754990000000    -0.173088   
N135     N      0.010730000000     0.092810000000     0.743860000000    -0.174174   
N136     N      0.000990000000     0.156860000000     0.756960000000    -0.172197   
N137     N      0.654770000000     0.992070000000     0.491720000000    -0.172067   
N138     N      0.591800000000     0.009830000000     0.505000000000    -0.167964   
N139     N      0.905010000000     0.010910000000     0.490740000000    -0.168055   
N140     N      0.841940000000     0.992100000000     0.501200000000    -0.17248    
N141     N      0.510350000000     0.355840000000     0.009000000000    -0.170909   
N142     N      0.496380000000     0.418490000000     0.992980000000    -0.170888   
N143     N      0.497580000000     0.104190000000     0.003410000000    -0.16981    
N144     N      0.507670000000     0.169850000000     0.997630000000    -0.170621   
N145     N      0.749740000000     0.991210000000     0.402730000000    -0.170861   
N146     N      0.768500000000     0.988050000000     0.338810000000    -0.171231   
N147     N      0.738400000000     0.987640000000     0.154850000000    -0.171259   
N148     N      0.749480000000     0.990730000000     0.089100000000    -0.171036   
N149     N      0.008920000000     0.769460000000     0.411040000000    -0.172278   
N150     N      0.507460000000     0.749410000000     0.347710000000    -0.170764   
N151     N      0.008130000000     0.761170000000     0.096980000000    -0.171785   
N152     N      0.506780000000     0.745060000000     0.161640000000    -0.170462   
N153     N      0.598880000000     0.999230000000     0.242890000000    -0.172973   
N154     N      0.661820000000     0.984680000000     0.258030000000    -0.17224    
N155     N      0.847450000000     0.989240000000     0.234950000000    -0.172302   
N156     N      0.911870000000     0.003020000000     0.245210000000    -0.168784   
N157     N      0.001430000000     0.906910000000     0.243500000000    -0.172073   
N158     N      0.012520000000     0.842530000000     0.254990000000    -0.172992   
N159     N      0.010730000000     0.592810000000     0.243860000000    -0.174192   
N160     N      0.000990000000     0.656860000000     0.256960000000    -0.172199   
N161     N      0.654770000000     0.492070000000     0.991720000000    -0.170647   
N162     N      0.591800000000     0.509830000000     0.005000000000    -0.169813   
N163     N      0.905010000000     0.510910000000     0.990740000000    -0.170127   
N164     N      0.841940000000     0.492100000000     0.001200000000    -0.170741   
N165     N      0.510350000000     0.855840000000     0.509000000000    -0.171035   
N166     N      0.496380000000     0.918490000000     0.492980000000    -0.171      
N167     N      0.497580000000     0.604190000000     0.503410000000    -0.169838   
N168     N      0.507670000000     0.669850000000     0.497630000000    -0.170413   
N169     N      0.749740000000     0.991210000000     0.902740000000    -0.170938   
N170     N      0.768500000000     0.988050000000     0.838820000000    -0.171155   
N171     N      0.738400000000     0.987640000000     0.654850000000    -0.171263   
N172     N      0.749480000000     0.990730000000     0.589100000000    -0.171051   
N173     N      0.008920000000     0.769460000000     0.911040000000    -0.17229    
N174     N      0.507460000000     0.749410000000     0.847710000000    -0.170756   
N175     N      0.008130000000     0.761170000000     0.596980000000    -0.171789   
N176     N      0.506780000000     0.745060000000     0.661640000000    -0.170469   
N177     N      0.598880000000     0.999230000000     0.742890000000    -0.172973   
N178     N      0.661820000000     0.984680000000     0.758030000000    -0.172246   
N179     N      0.847450000000     0.989240000000     0.734950000000    -0.17231    
N180     N      0.911870000000     0.003020000000     0.745210000000    -0.168722   
N181     N      0.001430000000     0.906910000000     0.743490000000    -0.172076   
N182     N      0.012520000000     0.842530000000     0.754990000000    -0.173007   
N183     N      0.010730000000     0.592810000000     0.743860000000    -0.174196   
N184     N      0.000990000000     0.656860000000     0.756960000000    -0.172203   
N185     N      0.654770000000     0.492070000000     0.491720000000    -0.170548   
N186     N      0.591800000000     0.509830000000     0.505000000000    -0.169906   
N187     N      0.905010000000     0.510910000000     0.490740000000    -0.170001   
N188     N      0.841940000000     0.492100000000     0.501200000000    -0.17096    
N189     N      0.510350000000     0.855840000000     0.009000000000    -0.170917   
N190     N      0.496380000000     0.918490000000     0.992980000000    -0.171084   
N191     N      0.497580000000     0.604190000000     0.003410000000    -0.169789   
N192     N      0.507670000000     0.669850000000     0.997630000000    -0.170632   
Ni1      Ni     0.996150000000     0.009770000000     0.025980000000     1.00854    
Ni2      Ni     0.000560000000     0.512730000000     0.470140000000     0.972382   
Ni3      Ni     0.505790000000     0.499920000000     0.272090000000     1.0074     
Ni4      Ni     0.505070000000     0.500070000000     0.215370000000     0.997621   
Ni5      Ni     0.480270000000     0.263320000000     0.503820000000     0.998547   
Ni6      Ni     0.037260000000     0.262420000000     0.003970000000     0.991605   
Ni7      Ni     0.035450000000     0.247930000000     0.254610000000     0.992298   
Ni8      Ni     0.478560000000     0.251300000000     0.254660000000     0.999383   
Ni9      Ni     0.248420000000     0.019800000000     0.996080000000     0.997436   
Ni10     Ni     0.248490000000     0.463210000000     0.495840000000     0.99243    
Ni11     Ni     0.255280000000     0.459290000000     0.246550000000     1.00402    
Ni12     Ni     0.253930000000     0.015880000000     0.246690000000     0.992615   
Ni13     Ni     0.996150000000     0.009770000000     0.525980000000     1.00841    
Ni14     Ni     0.000560000000     0.512730000000     0.970140000000     0.972355   
Ni15     Ni     0.505790000000     0.499920000000     0.772090000000     1.00739    
Ni16     Ni     0.505070000000     0.500070000000     0.715370000000     0.997556   
Ni17     Ni     0.480270000000     0.263320000000     0.003820000000     0.999173   
Ni18     Ni     0.037260000000     0.262420000000     0.503970000000     0.991571   
Ni19     Ni     0.035450000000     0.247930000000     0.754610000000     0.992313   
Ni20     Ni     0.478560000000     0.251300000000     0.754650000000     0.999378   
Ni21     Ni     0.248420000000     0.019800000000     0.496080000000     0.997668   
Ni22     Ni     0.248490000000     0.463210000000     0.995840000000     0.992353   
Ni23     Ni     0.255280000000     0.459290000000     0.746550000000     1.00402    
Ni24     Ni     0.253930000000     0.015880000000     0.746690000000     0.992611   
Ni25     Ni     0.996150000000     0.509770000000     0.025980000000     1.00585    
Ni26     Ni     0.000560000000     0.012730000000     0.470140000000     0.975145   
Ni27     Ni     0.505790000000     0.999930000000     0.272090000000     0.998329   
Ni28     Ni     0.505070000000     0.000060000000     0.215370000000     1.00669    
Ni29     Ni     0.480270000000     0.763320000000     0.503820000000     0.998567   
Ni30     Ni     0.037260000000     0.762420000000     0.003970000000     0.991642   
Ni31     Ni     0.035450000000     0.747930000000     0.254610000000     0.992319   
Ni32     Ni     0.478560000000     0.751300000000     0.254660000000     0.999415   
Ni33     Ni     0.248420000000     0.519800000000     0.996080000000     0.995826   
Ni34     Ni     0.248490000000     0.963210000000     0.495840000000     0.98918    
Ni35     Ni     0.255280000000     0.959290000000     0.246550000000     1.00077    
Ni36     Ni     0.253920000000     0.515880000000     0.246690000000     0.990981   
Ni37     Ni     0.996150000000     0.509770000000     0.525980000000     1.00568    
Ni38     Ni     0.000560000000     0.012730000000     0.970140000000     0.975129   
Ni39     Ni     0.505790000000     0.999930000000     0.772090000000     0.998303   
Ni40     Ni     0.505070000000     0.000060000000     0.715370000000     1.00665    
Ni41     Ni     0.480270000000     0.763320000000     0.003820000000     0.999207   
Ni42     Ni     0.037260000000     0.762420000000     0.503970000000     0.991601   
Ni43     Ni     0.035450000000     0.747930000000     0.754610000000     0.992334   
Ni44     Ni     0.478560000000     0.751300000000     0.754650000000     0.999409   
Ni45     Ni     0.248420000000     0.519800000000     0.496080000000     0.99608    
Ni46     Ni     0.248490000000     0.963210000000     0.995840000000     0.989102   
Ni47     Ni     0.255280000000     0.959290000000     0.746550000000     1.00075    
Ni48     Ni     0.253920000000     0.515880000000     0.746690000000     0.990973   
Ni49     Ni     0.496150000000     0.009770000000     0.025980000000     0.99197    
Ni50     Ni     0.500560000000     0.512730000000     0.470140000000     0.987171   
Ni51     Ni     0.005790000000     0.499920000000     0.272090000000     1.00289    
Ni52     Ni     0.005070000000     0.500070000000     0.215370000000     0.992759   
Ni53     Ni     0.980270000000     0.263320000000     0.503820000000     1.00136    
Ni54     Ni     0.537260000000     0.262420000000     0.003970000000     0.997205   
Ni55     Ni     0.535450000000     0.247930000000     0.254610000000     0.997957   
Ni56     Ni     0.978560000000     0.251300000000     0.254660000000     1.00215    
Ni57     Ni     0.748420000000     0.019800000000     0.996080000000     0.997427   
Ni58     Ni     0.748490000000     0.463210000000     0.495840000000     0.992395   
Ni59     Ni     0.755280000000     0.459290000000     0.246550000000     1.004      
Ni60     Ni     0.753920000000     0.015880000000     0.246690000000     0.992599   
Ni61     Ni     0.496150000000     0.009770000000     0.525980000000     0.991772   
Ni62     Ni     0.500560000000     0.512730000000     0.970140000000     0.987121   
Ni63     Ni     0.005790000000     0.499920000000     0.772090000000     1.00287    
Ni64     Ni     0.005070000000     0.500070000000     0.715370000000     0.992681   
Ni65     Ni     0.980270000000     0.263320000000     0.003820000000     1.00194    
Ni66     Ni     0.537260000000     0.262420000000     0.503970000000     0.997221   
Ni67     Ni     0.535450000000     0.247930000000     0.754610000000     0.997983   
Ni68     Ni     0.978560000000     0.251300000000     0.754650000000     1.00215    
Ni69     Ni     0.748420000000     0.019800000000     0.496080000000     0.997644   
Ni70     Ni     0.748490000000     0.463210000000     0.995840000000     0.992323   
Ni71     Ni     0.755280000000     0.459290000000     0.746550000000     1.00399    
Ni72     Ni     0.753920000000     0.015880000000     0.746690000000     0.992596   
Ni73     Ni     0.496150000000     0.509770000000     0.025980000000     0.989249   
Ni74     Ni     0.500560000000     0.012730000000     0.470140000000     0.989929   
Ni75     Ni     0.005790000000     0.999930000000     0.272090000000     0.993883   
Ni76     Ni     0.005070000000     0.000060000000     0.215370000000     1.00179    
Ni77     Ni     0.980270000000     0.763320000000     0.503820000000     1.00137    
Ni78     Ni     0.537260000000     0.762420000000     0.003970000000     0.997234   
Ni79     Ni     0.535450000000     0.747930000000     0.254610000000     0.997971   
Ni80     Ni     0.978560000000     0.751300000000     0.254660000000     1.00218    
Ni81     Ni     0.748420000000     0.519800000000     0.996080000000     0.995814   
Ni82     Ni     0.748490000000     0.963210000000     0.495840000000     0.989136   
Ni83     Ni     0.755280000000     0.959290000000     0.246550000000     1.00073    
Ni84     Ni     0.753920000000     0.515880000000     0.246690000000     0.990966   
Ni85     Ni     0.496150000000     0.509770000000     0.525980000000     0.989021   
Ni86     Ni     0.500560000000     0.012730000000     0.970140000000     0.989891   
Ni87     Ni     0.005790000000     0.999930000000     0.772090000000     0.993852   
Ni88     Ni     0.005070000000     0.000060000000     0.715370000000     1.00174    
Ni89     Ni     0.980270000000     0.763320000000     0.003820000000     1.00197    
Ni90     Ni     0.537260000000     0.762420000000     0.503970000000     0.997243   
Ni91     Ni     0.535450000000     0.747930000000     0.754610000000     0.997996   
Ni92     Ni     0.978560000000     0.751300000000     0.754650000000     1.00218    
Ni93     Ni     0.748420000000     0.519800000000     0.496080000000     0.996054   
Ni94     Ni     0.748490000000     0.963210000000     0.995840000000     0.989062   
Ni95     Ni     0.755280000000     0.959290000000     0.746550000000     1.00072    
Ni96     Ni     0.753920000000     0.515880000000     0.746690000000     0.990959   
O1       O      0.501640000000     0.055160000000     0.026780000000    -0.447168   
O2       O      0.990830000000     0.464720000000     0.021060000000    -0.450111   
O3       O      0.041910000000     0.004260000000     0.027150000000    -0.448489   
O4       O      0.450750000000     0.515280000000     0.020510000000    -0.445682   
O5       O      0.454870000000     0.007790000000     0.468340000000    -0.445722   
O6       O      0.045960000000     0.517210000000     0.476050000000    -0.4454     
O7       O      0.505210000000     0.467200000000     0.470200000000    -0.445863   
O8       O      0.995360000000     0.058080000000     0.474360000000    -0.441717   
O9       O      0.003530000000     0.454330000000     0.270060000000    -0.451233   
O10      O      0.508140000000     0.045440000000     0.270270000000    -0.449553   
O11      O      0.459990000000     0.500850000000     0.270760000000    -0.453187   
O12      O      0.051530000000     0.999290000000     0.269750000000    -0.45228    
O13      O      0.050980000000     0.497900000000     0.216800000000    -0.449165   
O14      O      0.459180000000     0.002450000000     0.217840000000    -0.449148   
O15      O      0.006260000000     0.045640000000     0.217340000000    -0.452125   
O16      O      0.504050000000     0.454410000000     0.217110000000    -0.449428   
O17      O      0.481580000000     0.217840000000     0.998560000000    -0.448058   
O18      O      0.482970000000     0.308630000000     0.508940000000    -0.449711   
O19      O      0.482330000000     0.267940000000     0.458670000000    -0.4519     
O20      O      0.481940000000     0.259080000000     0.049070000000    -0.450851   
O21      O      0.035150000000     0.262300000000     0.049460000000    -0.448267   
O22      O      0.035390000000     0.262930000000     0.458460000000    -0.448403   
O23      O      0.036090000000     0.308060000000     0.003670000000    -0.448444   
O24      O      0.034650000000     0.216790000000     0.504220000000    -0.447962   
O25      O      0.036230000000     0.293570000000     0.250910000000    -0.446414   
O26      O      0.030620000000     0.202630000000     0.258460000000    -0.447464   
O27      O      0.033330000000     0.244750000000     0.209330000000    -0.449864   
O28      O      0.033810000000     0.250980000000     0.299920000000    -0.449977   
O29      O      0.480530000000     0.249590000000     0.300120000000    -0.450297   
O30      O      0.480580000000     0.252370000000     0.209130000000    -0.449384   
O31      O      0.477630000000     0.205780000000     0.252550000000    -0.451141   
O32      O      0.483260000000     0.296640000000     0.256960000000    -0.450274   
O33      O      0.244900000000     0.017540000000     0.041580000000    -0.444575   
O34      O      0.252120000000     0.017870000000     0.450530000000    -0.444224   
O35      O      0.202850000000     0.017970000000     0.991640000000    -0.448648   
O36      O      0.293970000000     0.018030000000     0.500620000000    -0.448916   
O37      O      0.294610000000     0.465380000000     0.993930000000    -0.444934   
O38      O      0.202330000000     0.465280000000     0.497830000000    -0.444551   
O39      O      0.246910000000     0.465160000000     0.450520000000    -0.450889   
O40      O      0.250250000000     0.464850000000     0.041170000000    -0.451046   
O41      O      0.259400000000     0.461360000000     0.291960000000    -0.449068   
O42      O      0.250850000000     0.461350000000     0.201180000000    -0.448972   
O43      O      0.300810000000     0.462240000000     0.243160000000    -0.453638   
O44      O      0.209700000000     0.459920000000     0.249930000000    -0.453964   
O45      O      0.208960000000     0.012600000000     0.256280000000    -0.444608   
O46      O      0.299020000000     0.014920000000     0.237010000000    -0.443708   
O47      O      0.244560000000     0.013940000000     0.202220000000    -0.447586   
O48      O      0.263240000000     0.014180000000     0.291210000000    -0.447236   
O49      O      0.501640000000     0.055160000000     0.526780000000    -0.447055   
O50      O      0.990830000000     0.464720000000     0.521060000000    -0.450218   
O51      O      0.041910000000     0.004260000000     0.527150000000    -0.448454   
O52      O      0.450750000000     0.515280000000     0.520520000000    -0.445635   
O53      O      0.454870000000     0.007790000000     0.968340000000    -0.445767   
O54      O      0.045960000000     0.517210000000     0.976050000000    -0.445551   
O55      O      0.505210000000     0.467200000000     0.970200000000    -0.445847   
O56      O      0.995360000000     0.058080000000     0.974370000000    -0.442      
O57      O      0.003530000000     0.454330000000     0.770060000000    -0.451236   
O58      O      0.508140000000     0.045440000000     0.770270000000    -0.449546   
O59      O      0.459990000000     0.500850000000     0.770770000000    -0.453015   
O60      O      0.051530000000     0.999290000000     0.769750000000    -0.452374   
O61      O      0.050980000000     0.497900000000     0.716800000000    -0.449055   
O62      O      0.459180000000     0.002450000000     0.717840000000    -0.449076   
O63      O      0.006260000000     0.045640000000     0.717340000000    -0.452123   
O64      O      0.504050000000     0.454410000000     0.717110000000    -0.449418   
O65      O      0.481580000000     0.217840000000     0.498560000000    -0.447758   
O66      O      0.482970000000     0.308630000000     0.008940000000    -0.449735   
O67      O      0.482330000000     0.267940000000     0.958680000000    -0.452128   
O68      O      0.481940000000     0.259080000000     0.549070000000    -0.450776   
O69      O      0.035150000000     0.262300000000     0.549460000000    -0.448263   
O70      O      0.035390000000     0.262930000000     0.958450000000    -0.44844    
O71      O      0.036090000000     0.308060000000     0.503670000000    -0.448507   
O72      O      0.034650000000     0.216790000000     0.004220000000    -0.447991   
O73      O      0.036230000000     0.293570000000     0.750920000000    -0.446444   
O74      O      0.030620000000     0.202630000000     0.758460000000    -0.447467   
O75      O      0.033330000000     0.244750000000     0.709330000000    -0.449894   
O76      O      0.033810000000     0.250980000000     0.799920000000    -0.449949   
O77      O      0.480530000000     0.249590000000     0.800120000000    -0.450174   
O78      O      0.480580000000     0.252370000000     0.709130000000    -0.449508   
O79      O      0.477630000000     0.205780000000     0.752550000000    -0.451148   
O80      O      0.483260000000     0.296640000000     0.756960000000    -0.450278   
O81      O      0.244900000000     0.017540000000     0.541580000000    -0.444684   
O82      O      0.252120000000     0.017870000000     0.950530000000    -0.444228   
O83      O      0.202850000000     0.017970000000     0.491640000000    -0.448664   
O84      O      0.293970000000     0.018030000000     0.000620000000    -0.448619   
O85      O      0.294610000000     0.465380000000     0.493930000000    -0.445008   
O86      O      0.202330000000     0.465280000000     0.997830000000    -0.444565   
O87      O      0.246910000000     0.465160000000     0.950520000000    -0.450904   
O88      O      0.250250000000     0.464850000000     0.541170000000    -0.451166   
O89      O      0.259400000000     0.461360000000     0.791960000000    -0.449038   
O90      O      0.250850000000     0.461350000000     0.701180000000    -0.448973   
O91      O      0.300810000000     0.462240000000     0.743160000000    -0.453639   
O92      O      0.209700000000     0.459920000000     0.749930000000    -0.453964   
O93      O      0.208960000000     0.012600000000     0.756280000000    -0.444603   
O94      O      0.299020000000     0.014920000000     0.737010000000    -0.443703   
O95      O      0.244560000000     0.013940000000     0.702220000000    -0.447579   
O96      O      0.263240000000     0.014180000000     0.791210000000    -0.447203   
O97      O      0.501640000000     0.555160000000     0.026780000000    -0.44677    
O98      O      0.990830000000     0.964720000000     0.021060000000    -0.452225   
O99      O      0.041910000000     0.504250000000     0.027150000000    -0.44909    
O100     O      0.450750000000     0.015280000000     0.020510000000    -0.445436   
O101     O      0.454870000000     0.507790000000     0.468340000000    -0.446359   
O102     O      0.045960000000     0.017210000000     0.476050000000    -0.445144   
O103     O      0.505210000000     0.967200000000     0.470200000000    -0.447965   
O104     O      0.995360000000     0.558080000000     0.474360000000    -0.441315   
O105     O      0.003530000000     0.954330000000     0.270060000000    -0.450529   
O106     O      0.508140000000     0.545440000000     0.270270000000    -0.451869   
O107     O      0.459990000000     0.000860000000     0.270760000000    -0.450278   
O108     O      0.051530000000     0.499290000000     0.269750000000    -0.45243    
O109     O      0.050980000000     0.997900000000     0.216800000000    -0.451756   
O110     O      0.459180000000     0.502450000000     0.217840000000    -0.448933   
O111     O      0.006260000000     0.545640000000     0.217340000000    -0.451679   
O112     O      0.504050000000     0.954410000000     0.217110000000    -0.451868   
O113     O      0.481580000000     0.717840000000     0.998560000000    -0.448064   
O114     O      0.482970000000     0.808630000000     0.508940000000    -0.449718   
O115     O      0.482330000000     0.767940000000     0.458670000000    -0.451899   
O116     O      0.481940000000     0.759080000000     0.049070000000    -0.450852   
O117     O      0.035150000000     0.762300000000     0.049460000000    -0.448272   
O118     O      0.035390000000     0.762930000000     0.458460000000    -0.448403   
O119     O      0.036090000000     0.808060000000     0.003670000000    -0.448453   
O120     O      0.034650000000     0.716790000000     0.504220000000    -0.447962   
O121     O      0.036230000000     0.793570000000     0.250910000000    -0.4465     
O122     O      0.030620000000     0.702630000000     0.258460000000    -0.447474   
O123     O      0.033330000000     0.744750000000     0.209330000000    -0.449855   
O124     O      0.033810000000     0.750980000000     0.299920000000    -0.449975   
O125     O      0.480530000000     0.749590000000     0.300120000000    -0.4503     
O126     O      0.480580000000     0.752370000000     0.209130000000    -0.449405   
O127     O      0.477630000000     0.705780000000     0.252550000000    -0.45114    
O128     O      0.483260000000     0.796640000000     0.256960000000    -0.450354   
O129     O      0.244900000000     0.517540000000     0.041580000000    -0.446931   
O130     O      0.252120000000     0.517870000000     0.450530000000    -0.446605   
O131     O      0.202850000000     0.517970000000     0.991640000000    -0.450955   
O132     O      0.293970000000     0.518030000000     0.500620000000    -0.451222   
O133     O      0.294610000000     0.965380000000     0.993930000000    -0.444123   
O134     O      0.202330000000     0.965280000000     0.497830000000    -0.443741   
O135     O      0.246910000000     0.965160000000     0.450520000000    -0.450013   
O136     O      0.250250000000     0.964850000000     0.041170000000    -0.450172   
O137     O      0.259400000000     0.961360000000     0.291960000000    -0.448206   
O138     O      0.250850000000     0.961350000000     0.201180000000    -0.448101   
O139     O      0.300810000000     0.962240000000     0.243160000000    -0.45282    
O140     O      0.209700000000     0.959920000000     0.249930000000    -0.453092   
O141     O      0.208960000000     0.512600000000     0.256280000000    -0.447074   
O142     O      0.299020000000     0.514920000000     0.237010000000    -0.445911   
O143     O      0.244560000000     0.513940000000     0.202220000000    -0.450023   
O144     O      0.263240000000     0.514180000000     0.291210000000    -0.449594   
O145     O      0.501640000000     0.555160000000     0.526780000000    -0.446652   
O146     O      0.990830000000     0.964720000000     0.521060000000    -0.452347   
O147     O      0.041910000000     0.504250000000     0.527150000000    -0.449054   
O148     O      0.450750000000     0.015280000000     0.520520000000    -0.445379   
O149     O      0.454870000000     0.507790000000     0.968340000000    -0.4464     
O150     O      0.045960000000     0.017210000000     0.976050000000    -0.445286   
O151     O      0.505210000000     0.967200000000     0.970200000000    -0.447948   
O152     O      0.995360000000     0.558080000000     0.974370000000    -0.441606   
O153     O      0.003530000000     0.954330000000     0.770060000000    -0.450531   
O154     O      0.508140000000     0.545440000000     0.770270000000    -0.451865   
O155     O      0.459990000000     0.000860000000     0.770770000000    -0.450101   
O156     O      0.051530000000     0.499290000000     0.769750000000    -0.452525   
O157     O      0.050980000000     0.997900000000     0.716800000000    -0.451652   
O158     O      0.459180000000     0.502450000000     0.717840000000    -0.44886    
O159     O      0.006260000000     0.545640000000     0.717340000000    -0.451675   
O160     O      0.504050000000     0.954410000000     0.717110000000    -0.451864   
O161     O      0.481580000000     0.717840000000     0.498560000000    -0.447752   
O162     O      0.482970000000     0.808630000000     0.008940000000    -0.449743   
O163     O      0.482330000000     0.767940000000     0.958680000000    -0.452132   
O164     O      0.481940000000     0.759080000000     0.549070000000    -0.450775   
O165     O      0.035150000000     0.762300000000     0.549460000000    -0.448267   
O166     O      0.035390000000     0.762930000000     0.958450000000    -0.448445   
O167     O      0.036090000000     0.808060000000     0.503670000000    -0.448517   
O168     O      0.034650000000     0.716790000000     0.004220000000    -0.447993   
O169     O      0.036230000000     0.793570000000     0.750920000000    -0.44653    
O170     O      0.030620000000     0.702630000000     0.758460000000    -0.447477   
O171     O      0.033330000000     0.744750000000     0.709330000000    -0.449885   
O172     O      0.033810000000     0.750980000000     0.799920000000    -0.449947   
O173     O      0.480530000000     0.749590000000     0.800120000000    -0.450178   
O174     O      0.480580000000     0.752370000000     0.709130000000    -0.449529   
O175     O      0.477630000000     0.705780000000     0.752550000000    -0.451147   
O176     O      0.483260000000     0.796640000000     0.756960000000    -0.450358   
O177     O      0.244900000000     0.517540000000     0.541580000000    -0.44706    
O178     O      0.252120000000     0.517870000000     0.950530000000    -0.446608   
O179     O      0.202850000000     0.517970000000     0.491640000000    -0.450975   
O180     O      0.293970000000     0.518030000000     0.000620000000    -0.450903   
O181     O      0.294610000000     0.965380000000     0.493930000000    -0.444195   
O182     O      0.202330000000     0.965280000000     0.997830000000    -0.443756   
O183     O      0.246910000000     0.965160000000     0.950520000000    -0.450027   
O184     O      0.250250000000     0.964850000000     0.541170000000    -0.450291   
O185     O      0.259400000000     0.961360000000     0.791960000000    -0.448174   
O186     O      0.250850000000     0.961350000000     0.701180000000    -0.4481     
O187     O      0.300810000000     0.962240000000     0.743160000000    -0.452819   
O188     O      0.209700000000     0.959920000000     0.749930000000    -0.453091   
O189     O      0.208960000000     0.512600000000     0.756280000000    -0.447074   
O190     O      0.299020000000     0.514920000000     0.737010000000    -0.445912   
O191     O      0.244560000000     0.513940000000     0.702220000000    -0.450023   
O192     O      0.263240000000     0.514180000000     0.791210000000    -0.449565   
O193     O      0.001640000000     0.055160000000     0.026780000000    -0.455443   
O194     O      0.490830000000     0.464720000000     0.021060000000    -0.448098   
O195     O      0.541910000000     0.004260000000     0.027150000000    -0.444316   
O196     O      0.950750000000     0.515280000000     0.020510000000    -0.446967   
O197     O      0.954870000000     0.007790000000     0.468340000000    -0.441786   
O198     O      0.545960000000     0.517210000000     0.476050000000    -0.446375   
O199     O      0.005210000000     0.467200000000     0.470200000000    -0.448922   
O200     O      0.495360000000     0.058080000000     0.474360000000    -0.444964   
O201     O      0.503530000000     0.454330000000     0.270060000000    -0.45051    
O202     O      0.008140000000     0.045440000000     0.270270000000    -0.449962   
O203     O      0.959990000000     0.500850000000     0.270760000000    -0.449436   
O204     O      0.551530000000     0.999290000000     0.269750000000    -0.452956   
O205     O      0.550980000000     0.497900000000     0.216800000000    -0.449848   
O206     O      0.959180000000     0.002450000000     0.217840000000    -0.445497   
O207     O      0.506260000000     0.045640000000     0.217340000000    -0.451264   
O208     O      0.004050000000     0.454410000000     0.217110000000    -0.449913   
O209     O      0.981580000000     0.217840000000     0.998560000000    -0.444001   
O210     O      0.982970000000     0.308630000000     0.508940000000    -0.445601   
O211     O      0.982330000000     0.267940000000     0.458670000000    -0.44769    
O212     O      0.981940000000     0.259080000000     0.049070000000    -0.4467     
O213     O      0.535150000000     0.262300000000     0.049460000000    -0.449774   
O214     O      0.535390000000     0.262930000000     0.458460000000    -0.449948   
O215     O      0.536090000000     0.308060000000     0.003670000000    -0.449936   
O216     O      0.534650000000     0.216790000000     0.504220000000    -0.449412   
O217     O      0.536230000000     0.293570000000     0.250910000000    -0.447897   
O218     O      0.530620000000     0.202630000000     0.258460000000    -0.449024   
O219     O      0.533330000000     0.244750000000     0.209330000000    -0.451393   
O220     O      0.533810000000     0.250980000000     0.299920000000    -0.451534   
O221     O      0.980530000000     0.249590000000     0.300120000000    -0.446078   
O222     O      0.980580000000     0.252370000000     0.209130000000    -0.445228   
O223     O      0.977630000000     0.205780000000     0.252550000000    -0.446909   
O224     O      0.983260000000     0.296640000000     0.256960000000    -0.446187   
O225     O      0.744900000000     0.017540000000     0.041580000000    -0.444575   
O226     O      0.752120000000     0.017870000000     0.450530000000    -0.444213   
O227     O      0.702850000000     0.017970000000     0.991640000000    -0.448644   
O228     O      0.793970000000     0.018030000000     0.500620000000    -0.448901   
O229     O      0.794610000000     0.465380000000     0.993930000000    -0.444923   
O230     O      0.702330000000     0.465280000000     0.497830000000    -0.444556   
O231     O      0.746910000000     0.465160000000     0.450520000000    -0.45089    
O232     O      0.750250000000     0.464850000000     0.041170000000    -0.451052   
O233     O      0.759400000000     0.461360000000     0.291960000000    -0.449066   
O234     O      0.750850000000     0.461350000000     0.201180000000    -0.448971   
O235     O      0.800810000000     0.462240000000     0.243160000000    -0.453615   
O236     O      0.709700000000     0.459920000000     0.249930000000    -0.454005   
O237     O      0.708960000000     0.012600000000     0.256280000000    -0.444723   
O238     O      0.799020000000     0.014920000000     0.237010000000    -0.443568   
O239     O      0.744560000000     0.013940000000     0.202220000000    -0.447607   
O240     O      0.763240000000     0.014180000000     0.291210000000    -0.447195   
O241     O      0.001640000000     0.055160000000     0.526780000000    -0.455374   
O242     O      0.490830000000     0.464720000000     0.521060000000    -0.448207   
O243     O      0.541910000000     0.004260000000     0.527150000000    -0.444265   
O244     O      0.950750000000     0.515280000000     0.520520000000    -0.44692    
O245     O      0.954870000000     0.007790000000     0.968340000000    -0.441834   
O246     O      0.545960000000     0.517210000000     0.976050000000    -0.446515   
O247     O      0.005210000000     0.467200000000     0.970200000000    -0.448907   
O248     O      0.495360000000     0.058080000000     0.974370000000    -0.445255   
O249     O      0.503530000000     0.454330000000     0.770060000000    -0.450513   
O250     O      0.008140000000     0.045440000000     0.770270000000    -0.449956   
O251     O      0.959990000000     0.500850000000     0.770770000000    -0.44926    
O252     O      0.551530000000     0.999290000000     0.769750000000    -0.453051   
O253     O      0.550980000000     0.497900000000     0.716800000000    -0.44974    
O254     O      0.959180000000     0.002450000000     0.717840000000    -0.445418   
O255     O      0.506260000000     0.045640000000     0.717340000000    -0.451259   
O256     O      0.004050000000     0.454410000000     0.717110000000    -0.449904   
O257     O      0.981580000000     0.217840000000     0.498560000000    -0.443689   
O258     O      0.982970000000     0.308630000000     0.008940000000    -0.445645   
O259     O      0.982330000000     0.267940000000     0.958680000000    -0.447915   
O260     O      0.981940000000     0.259080000000     0.549070000000    -0.446609   
O261     O      0.535150000000     0.262300000000     0.549460000000    -0.449779   
O262     O      0.535390000000     0.262930000000     0.958450000000    -0.449972   
O263     O      0.536090000000     0.308060000000     0.503670000000    -0.450005   
O264     O      0.534650000000     0.216790000000     0.004220000000    -0.449432   
O265     O      0.536230000000     0.293570000000     0.750920000000    -0.44793    
O266     O      0.530620000000     0.202630000000     0.758460000000    -0.44903    
O267     O      0.533330000000     0.244750000000     0.709330000000    -0.451426   
O268     O      0.533810000000     0.250980000000     0.799920000000    -0.451508   
O269     O      0.980530000000     0.249590000000     0.800120000000    -0.445951   
O270     O      0.980580000000     0.252370000000     0.709130000000    -0.445343   
O271     O      0.977630000000     0.205780000000     0.752550000000    -0.446909   
O272     O      0.983260000000     0.296640000000     0.756960000000    -0.446184   
O273     O      0.744900000000     0.017540000000     0.541580000000    -0.444677   
O274     O      0.752120000000     0.017870000000     0.950530000000    -0.444219   
O275     O      0.702850000000     0.017970000000     0.491640000000    -0.44866    
O276     O      0.793970000000     0.018030000000     0.000620000000    -0.448619   
O277     O      0.794610000000     0.465380000000     0.493930000000    -0.444994   
O278     O      0.702330000000     0.465280000000     0.997830000000    -0.444569   
O279     O      0.746910000000     0.465160000000     0.950520000000    -0.450905   
O280     O      0.750250000000     0.464850000000     0.541170000000    -0.451166   
O281     O      0.759400000000     0.461360000000     0.791960000000    -0.449037   
O282     O      0.750850000000     0.461350000000     0.701180000000    -0.448972   
O283     O      0.800810000000     0.462240000000     0.743160000000    -0.453615   
O284     O      0.709700000000     0.459920000000     0.749930000000    -0.454005   
O285     O      0.708960000000     0.012600000000     0.756280000000    -0.444718   
O286     O      0.799020000000     0.014920000000     0.737010000000    -0.443563   
O287     O      0.744560000000     0.013940000000     0.702220000000    -0.4476     
O288     O      0.763240000000     0.014180000000     0.791210000000    -0.447162   
O289     O      0.001640000000     0.555160000000     0.026780000000    -0.455055   
O290     O      0.490830000000     0.964720000000     0.021060000000    -0.450217   
O291     O      0.541910000000     0.504250000000     0.027150000000    -0.444913   
O292     O      0.950750000000     0.015280000000     0.020510000000    -0.446719   
O293     O      0.954870000000     0.507790000000     0.468340000000    -0.442417   
O294     O      0.545960000000     0.017210000000     0.476050000000    -0.446118   
O295     O      0.005210000000     0.967200000000     0.470200000000    -0.450996   
O296     O      0.495360000000     0.558080000000     0.474360000000    -0.444565   
O297     O      0.503530000000     0.954330000000     0.270060000000    -0.449805   
O298     O      0.008140000000     0.545440000000     0.270270000000    -0.452265   
O299     O      0.959990000000     0.000860000000     0.270760000000    -0.446546   
O300     O      0.551530000000     0.499290000000     0.269750000000    -0.453188   
O301     O      0.550980000000     0.997900000000     0.216800000000    -0.452371   
O302     O      0.959180000000     0.502450000000     0.217840000000    -0.445278   
O303     O      0.506260000000     0.545640000000     0.217340000000    -0.450816   
O304     O      0.004050000000     0.954410000000     0.217110000000    -0.452338   
O305     O      0.981580000000     0.717840000000     0.998560000000    -0.444011   
O306     O      0.982970000000     0.808630000000     0.508940000000    -0.445617   
O307     O      0.982330000000     0.767940000000     0.458670000000    -0.447696   
O308     O      0.981940000000     0.759080000000     0.049070000000    -0.446706   
O309     O      0.535150000000     0.762300000000     0.049460000000    -0.449777   
O310     O      0.535390000000     0.762930000000     0.458460000000    -0.449946   
O311     O      0.536090000000     0.808060000000     0.003670000000    -0.449943   
O312     O      0.534650000000     0.716790000000     0.504220000000    -0.449409   
O313     O      0.536230000000     0.793570000000     0.250910000000    -0.447982   
O314     O      0.530620000000     0.702630000000     0.258460000000    -0.449033   
O315     O      0.533330000000     0.744750000000     0.209330000000    -0.451382   
O316     O      0.533810000000     0.750980000000     0.299920000000    -0.451529   
O317     O      0.980530000000     0.749590000000     0.300120000000    -0.446087   
O318     O      0.980580000000     0.752370000000     0.209130000000    -0.445254   
O319     O      0.977630000000     0.705780000000     0.252550000000    -0.446911   
O320     O      0.983260000000     0.796640000000     0.256960000000    -0.446274   
O321     O      0.744900000000     0.517540000000     0.041580000000    -0.446937   
O322     O      0.752120000000     0.517870000000     0.450530000000    -0.446601   
O323     O      0.702850000000     0.517970000000     0.991640000000    -0.450958   
O324     O      0.793970000000     0.518030000000     0.500620000000    -0.451211   
O325     O      0.794610000000     0.965380000000     0.993930000000    -0.44411    
O326     O      0.702330000000     0.965280000000     0.497830000000    -0.443744   
O327     O      0.746910000000     0.965160000000     0.450520000000    -0.450011   
O328     O      0.750250000000     0.964850000000     0.041170000000    -0.450175   
O329     O      0.759400000000     0.961360000000     0.291960000000    -0.448199   
O330     O      0.750850000000     0.961350000000     0.201180000000    -0.4481     
O331     O      0.800810000000     0.962240000000     0.243160000000    -0.452778   
O332     O      0.709700000000     0.959920000000     0.249930000000    -0.453116   
O333     O      0.708960000000     0.512600000000     0.256280000000    -0.447112   
O334     O      0.799020000000     0.514920000000     0.237010000000    -0.445889   
O335     O      0.744560000000     0.513940000000     0.202220000000    -0.450025   
O336     O      0.763240000000     0.514180000000     0.291210000000    -0.449583   
O337     O      0.001640000000     0.555160000000     0.526780000000    -0.45498    
O338     O      0.490830000000     0.964720000000     0.521060000000    -0.45034    
O339     O      0.541910000000     0.504250000000     0.527150000000    -0.44486    
O340     O      0.950750000000     0.015280000000     0.520520000000    -0.446662   
O341     O      0.954870000000     0.507790000000     0.968340000000    -0.442462   
O342     O      0.545960000000     0.017210000000     0.976050000000    -0.446248   
O343     O      0.005210000000     0.967200000000     0.970200000000    -0.450979   
O344     O      0.495360000000     0.558080000000     0.974370000000    -0.444863   
O345     O      0.503530000000     0.954330000000     0.770060000000    -0.449806   
O346     O      0.008140000000     0.545440000000     0.770270000000    -0.452262   
O347     O      0.959990000000     0.000860000000     0.770770000000    -0.446365   
O348     O      0.551530000000     0.499290000000     0.769750000000    -0.453285   
O349     O      0.550980000000     0.997900000000     0.716800000000    -0.452269   
O350     O      0.959180000000     0.502450000000     0.717840000000    -0.445199   
O351     O      0.506260000000     0.545640000000     0.717340000000    -0.450809   
O352     O      0.004050000000     0.954410000000     0.717110000000    -0.452336   
O353     O      0.981580000000     0.717840000000     0.498560000000    -0.443687   
O354     O      0.982970000000     0.808630000000     0.008940000000    -0.445662   
O355     O      0.982330000000     0.767940000000     0.958680000000    -0.447926   
O356     O      0.981940000000     0.759080000000     0.549070000000    -0.446614   
O357     O      0.535150000000     0.762300000000     0.549460000000    -0.449781   
O358     O      0.535390000000     0.762930000000     0.958450000000    -0.449975   
O359     O      0.536090000000     0.808060000000     0.503670000000    -0.450012   
O360     O      0.534650000000     0.716790000000     0.004220000000    -0.449432   
O361     O      0.536230000000     0.793570000000     0.750920000000    -0.448015   
O362     O      0.530620000000     0.702630000000     0.758460000000    -0.449038   
O363     O      0.533330000000     0.744750000000     0.709330000000    -0.451415   
O364     O      0.533810000000     0.750980000000     0.799920000000    -0.451503   
O365     O      0.980530000000     0.749590000000     0.800120000000    -0.44596    
O366     O      0.980580000000     0.752370000000     0.709130000000    -0.445369   
O367     O      0.977630000000     0.705780000000     0.752550000000    -0.446912   
O368     O      0.983260000000     0.796640000000     0.756960000000    -0.446271   
O369     O      0.744900000000     0.517540000000     0.541580000000    -0.44706    
O370     O      0.752120000000     0.517870000000     0.950530000000    -0.446605   
O371     O      0.702850000000     0.517970000000     0.491640000000    -0.450977   
O372     O      0.793970000000     0.518030000000     0.000620000000    -0.450908   
O373     O      0.794610000000     0.965380000000     0.493930000000    -0.444177   
O374     O      0.702330000000     0.965280000000     0.997830000000    -0.443758   
O375     O      0.746910000000     0.965160000000     0.950520000000    -0.450026   
O376     O      0.750250000000     0.964850000000     0.541170000000    -0.450288   
O377     O      0.759400000000     0.961360000000     0.791960000000    -0.448168   
O378     O      0.750850000000     0.961350000000     0.701180000000    -0.448099   
O379     O      0.800810000000     0.962240000000     0.743160000000    -0.452776   
O380     O      0.709700000000     0.959920000000     0.749930000000    -0.453115   
O381     O      0.708960000000     0.512600000000     0.756280000000    -0.447112   
O382     O      0.799020000000     0.514920000000     0.737010000000    -0.44589    
O383     O      0.744560000000     0.513940000000     0.702220000000    -0.450025   
O384     O      0.763240000000     0.514180000000     0.791210000000    -0.449553   


