data_structure

_audit_creation_method RASPA-1.0
_audit_creation_date 2023-5-25
_audit_author_name 'Poobodin Mano'

_cell_length_a    29.4071
_cell_length_b    29.4786
_cell_length_c    29.1816
_cell_angle_alpha 89.997
_cell_angle_beta  89.997
_cell_angle_gamma 89.997
_cell_volume      25296.9

_symmetry_cell_setting          triclinic
_symmetry_space_group_name_Hall 'P 1'
_symmetry_space_group_name_H-M  'P 1'
_symmetry_Int_Tables_number     1

_symmetry_equiv_pos_as_xyz 'x,y,z'

loop_
_atom_site_label
_atom_site_type_symbol
_atom_site_fract_x
_atom_site_fract_y
_atom_site_fract_z
_atom_site_charge
C1       C      0.997760000000     0.926400000000     0.503110000000     0.42939    
C2       C      0.006180000000     0.099380000000     0.509390000000     0.440813   
C3       C      0.914740000000     0.016990000000     0.504210000000     0.431303   
C4       C      0.088030000000     0.008110000000     0.509900000000     0.442204   
C5       C      0.032370000000     0.509660000000     0.595490000000     0.430169   
C6       C      0.013150000000     0.518430000000     0.421810000000     0.427131   
C7       C      0.029710000000     0.600700000000     0.513700000000     0.430523   
C8       C      0.014890000000     0.428550000000     0.504720000000     0.430325   
C9       C      0.490270000000     0.966500000000     0.421790000000     0.438172   
C10      C      0.509610000000     0.985030000000     0.594200000000     0.429556   
C11      C      0.414790000000     0.972370000000     0.518910000000     0.429081   
C12      C      0.586510000000     0.978470000000     0.496870000000     0.432246   
C13      C      0.502790000000     0.086750000000     0.013140000000     0.429726   
C14      C      0.520570000000     0.914770000000     0.012660000000     0.435224   
C15      C      0.509210000000     0.999900000000     0.099150000000     0.431266   
C16      C      0.515400000000     0.001010000000     0.924690000000     0.430442   
C17      C      0.010160000000     0.518790000000     0.921310000000     0.427601   
C18      C      0.982880000000     0.498670000000     0.092830000000     0.430286   
C19      C      0.912720000000     0.520980000000     0.993990000000     0.430075   
C20      C      0.082670000000     0.496430000000     0.019270000000     0.428931   
C21      C      0.497930000000     0.416500000000     0.003230000000     0.435335   
C22      C      0.498450000000     0.589370000000     0.992630000000     0.432414   
C23      C      0.411340000000     0.504110000000     0.998250000000     0.433823   
C24      C      0.585080000000     0.503460000000     0.997560000000     0.435753   
C25      C      0.842490000000     0.496940000000     0.954610000000     0.0171053  
C26      C      0.656710000000     0.517580000000     0.039290000000     0.0130405  
C27      C      0.657310000000     0.488450000000     0.956650000000    -0.00156874 
C28      C      0.696880000000     0.548890000000     0.028440000000    -0.101035   
C29      C      0.796870000000     0.483440000000     0.975510000000    -0.106501   
C30      C      0.700230000000     0.516760000000     0.947740000000    -0.091615   
C31      C      0.771710000000     0.524340000000     0.994450000000     0.0274802  
C32      C      0.725620000000     0.527550000000     0.991450000000     0.0267172  
C33      C      0.843960000000     0.568510000000     0.001700000000     0.0151509  
C34      C      0.799290000000     0.555230000000     0.025350000000    -0.104982   
C35      C      0.338320000000     0.493360000000     0.957640000000     0.0148501  
C36      C      0.156100000000     0.521780000000     0.051970000000     0.0141016  
C37      C      0.150500000000     0.448630000000     0.006270000000    -0.00155912 
C38      C      0.200010000000     0.534260000000     0.027000000000    -0.100772   
C39      C      0.296620000000     0.465070000000     0.971420000000    -0.104883   
C40      C      0.194720000000     0.460730000000     0.980640000000    -0.0920131  
C41      C      0.270380000000     0.489180000000     0.008920000000     0.0288453  
C42      C      0.224120000000     0.492560000000     0.008610000000     0.0292451  
C43      C      0.340580000000     0.529180000000     0.036210000000     0.0130088  
C44      C      0.298460000000     0.502350000000     0.050410000000    -0.102942   
C45      C      0.490200000000     0.841500000000     0.039420000000     0.0207205  
C46      C      0.515960000000     0.659120000000     0.949260000000     0.0133004  
C47      C      0.474210000000     0.662250000000     0.025870000000    -0.00336141 
C48      C      0.544540000000     0.700630000000     0.962960000000    -0.0997401  
C49      C      0.475050000000     0.802050000000     0.009570000000    -0.110039   
C50      C      0.501120000000     0.704860000000     0.038570000000    -0.0893987  
C51      C      0.516080000000     0.775620000000     0.993110000000     0.0343702  
C52      C      0.518330000000     0.729630000000     0.996580000000     0.0250156  
C53      C      0.565480000000     0.844920000000     0.998140000000     0.020412   
C54      C      0.552090000000     0.803490000000     0.968750000000    -0.111119   
C55      C      0.525550000000     0.159730000000     0.047330000000     0.0151102  
C56      C      0.490340000000     0.343320000000     0.963450000000     0.0141929  
C57      C      0.513380000000     0.346760000000     0.048090000000    -0.00470019 
C58      C      0.462140000000     0.300860000000     0.972960000000    -0.102152   
C59      C      0.534440000000     0.207630000000     0.028980000000    -0.106069   
C60      C      0.489800000000     0.300660000000     0.055260000000    -0.0913794  
C61      C      0.492190000000     0.228930000000     0.008230000000     0.0273762  
C62      C      0.484340000000     0.274400000000     0.011070000000     0.0271499  
C63      C      0.455460000000     0.153710000000     0.997610000000     0.016298   
C64      C      0.466420000000     0.199150000000     0.974980000000    -0.105411   
C65      C      0.488120000000     0.957570000000     0.670840000000     0.0155648  
C66      C      0.558730000000     0.016810000000     0.854350000000     0.014107   
C67      C      0.484150000000     0.972010000000     0.851930000000    -0.00305819 
C68      C      0.547250000000     0.038490000000     0.808070000000    -0.10145    
C69      C      0.514400000000     0.950040000000     0.715230000000    -0.107025   
C70      C      0.474970000000     0.991620000000     0.804120000000    -0.0907235  
C71      C      0.528070000000     0.994930000000     0.736280000000     0.0293613  
C72      C      0.518310000000     0.006250000000     0.780480000000     0.0263054  
C73      C      0.527320000000     0.033570000000     0.660630000000     0.0150562  
C74      C      0.554770000000     0.025630000000     0.704630000000    -0.106341   
C75      C      0.467540000000     0.013770000000     0.171620000000     0.0156261  
C76      C      0.500680000000     0.920530000000     0.352040000000     0.0220885  
C77      C      0.454950000000     0.993700000000     0.350050000000    -0.00162096 
C78      C      0.524110000000     0.933120000000     0.306990000000    -0.107281   
C79      C      0.451540000000     0.976520000000     0.204180000000    -0.105139   
C80      C      0.475160000000     0.004900000000     0.302930000000    -0.0918089  
C81      C      0.491250000000     0.959110000000     0.232210000000     0.0265513  
C82      C      0.493570000000     0.963300000000     0.278590000000     0.0338732  
C83      C      0.546860000000     0.980910000000     0.172420000000     0.0134808  
C84      C      0.531170000000     0.942330000000     0.204050000000    -0.10427    
C85      C      0.079830000000     0.520580000000     0.664840000000     0.0143154  
C86      C      0.989090000000     0.493200000000     0.843930000000     0.0143387  
C87      C      0.038000000000     0.563790000000     0.855140000000    -0.00240392 
C88      C      0.019580000000     0.477960000000     0.804880000000    -0.100491   
C89      C      0.069290000000     0.550520000000     0.706880000000    -0.106574   
C90      C      0.066740000000     0.550010000000     0.812740000000    -0.0909126  
C91      C      0.033530000000     0.527600000000     0.736190000000     0.0330528  
C92      C      0.039850000000     0.518910000000     0.781550000000     0.0247239  
C93      C      0.001930000000     0.484670000000     0.670110000000     0.0158477  
C94      C      0.990440000000     0.514460000000     0.711100000000    -0.105087   
C95      C      0.983900000000     0.450830000000     0.162390000000     0.0149759  
C96      C      0.969540000000     0.541280000000     0.352860000000     0.0131628  
C97      C      0.045610000000     0.500360000000     0.346140000000    -0.000749734
C98      C      0.951460000000     0.514150000000     0.311920000000    -0.0998237  
C99      C      0.010790000000     0.461090000000     0.206210000000    -0.104476   
C100     C      0.026640000000     0.471310000000     0.306760000000    -0.0933348  
C101     C      0.986650000000     0.496730000000     0.234950000000     0.0281073  
C102     C      0.989530000000     0.496590000000     0.281640000000     0.0287909  
C103     C      0.948370000000     0.528270000000     0.164090000000     0.0162245  
C104     C      0.971900000000     0.539270000000     0.209490000000    -0.104459   
C105     C      0.345920000000     0.003280000000     0.555620000000     0.0164714  
C106     C      0.160470000000     0.995750000000     0.469380000000     0.015756   
C107     C      0.158870000000     0.015100000000     0.555190000000     0.00263002 
C108     C      0.198880000000     0.961920000000     0.478010000000    -0.103656   
C109     C      0.300300000000     0.018420000000     0.535600000000    -0.106873   
C110     C      0.201930000000     0.986160000000     0.561470000000    -0.0942674  
C111     C      0.273540000000     0.978930000000     0.515960000000     0.0264035  
C112     C      0.227410000000     0.979010000000     0.517180000000     0.0278468  
C113     C      0.342700000000     0.930960000000     0.509470000000     0.0156162  
C114     C      0.299600000000     0.947070000000     0.485000000000    -0.106195   
C115     C      0.842790000000     0.036900000000     0.464250000000     0.0154629  
C116     C      0.661030000000     0.941400000000     0.505800000000     0.0148168  
C117     C      0.653330000000     0.014040000000     0.459710000000    -0.00317972 
C118     C      0.704220000000     0.959200000000     0.528520000000    -0.101108   
C119     C      0.801280000000     0.007390000000     0.452880000000    -0.105541   
C120     C      0.699890000000     0.029920000000     0.477790000000    -0.0898196  
C121     C      0.775150000000     0.993600000000     0.495650000000     0.0260985  
C122     C      0.728790000000     0.991530000000     0.496730000000     0.0272828  
C123     C      0.842060000000     0.007660000000     0.545360000000     0.0157564  
C124     C      0.804040000000     0.974270000000     0.533900000000    -0.105088   
C125     C      0.071460000000     0.671790000000     0.497510000000     0.0144433  
C126     C      0.980370000000     0.852790000000     0.539960000000     0.014364   
C127     C      0.009850000000     0.856490000000     0.458000000000    -0.00158481 
C128     C      0.012380000000     0.813290000000     0.550000000000    -0.100758   
C129     C      0.053630000000     0.714410000000     0.473040000000    -0.105198   
C130     C      0.041790000000     0.816090000000     0.467730000000    -0.0922905  
C131     C      0.022690000000     0.741200000000     0.504700000000     0.0294139  
C132     C      0.023550000000     0.787380000000     0.506590000000     0.0274369  
C133     C      0.003260000000     0.671590000000     0.549840000000     0.0154895  
C134     C      0.984700000000     0.714140000000     0.526790000000    -0.104202   
C135     C      0.041280000000     0.355290000000     0.473730000000     0.0155437  
C136     C      0.004020000000     0.169770000000     0.554920000000     0.0156897  
C137     C      0.026360000000     0.170830000000     0.469870000000     0.00240107 
C138     C      0.979320000000     0.215000000000     0.548760000000    -0.102906   
C139     C      0.052750000000     0.309710000000     0.496070000000    -0.10593    
C140     C      0.006320000000     0.218860000000     0.466270000000    -0.0938363  
C141     C      0.010940000000     0.287450000000     0.516540000000     0.0255465  
C142     C      0.002980000000     0.242230000000     0.512170000000     0.0277771  
C143     C      0.969580000000     0.360400000000     0.521510000000     0.0159279  
C144     C      0.982770000000     0.317300000000     0.547600000000    -0.10535    
H1       H      0.777310000000     0.463900000000     0.949800000000     0.0662958  
H2       H      0.669650000000     0.486430000000     0.056340000000     0.0549392  
H3       H      0.836090000000     0.590730000000     0.971930000000     0.0355823  
H4       H      0.780770000000     0.587200000000     0.033100000000     0.0482635  
H5       H      0.716050000000     0.553930000000     0.060840000000     0.0493403  
H6       H      0.721470000000     0.500880000000     0.920790000000     0.0560747  
H7       H      0.862130000000     0.465830000000     0.946090000000     0.041257   
H8       H      0.634540000000     0.535300000000     0.064430000000     0.0435058  
H9       H      0.806660000000     0.537450000000     0.058110000000     0.0576013  
H10      H      0.689310000000     0.549700000000     0.932770000000     0.0523491  
H11      H      0.865020000000     0.588270000000     0.026290000000     0.0403801  
H12      H      0.803400000000     0.459800000000     0.004450000000     0.0722635  
H13      H      0.684210000000     0.582420000000     0.016580000000     0.0526252  
H14      H      0.636250000000     0.490790000000     0.925110000000     0.0552383  
H15      H      0.835690000000     0.515030000000     0.921860000000     0.0307286  
H16      H      0.615260000000     0.397690000000     0.995900000000    -0.0840751  
H17      H      0.275860000000     0.460190000000     0.940010000000     0.049045   
H18      H      0.165220000000     0.505590000000     0.085090000000     0.0417367  
H19      H      0.329300000000     0.563210000000     0.024320000000     0.0479939  
H20      H      0.279410000000     0.521620000000     0.076710000000     0.057502   
H21      H      0.221200000000     0.555460000000     0.049880000000     0.054045   
H22      H      0.212700000000     0.428580000000     0.972400000000     0.0572197  
H23      H      0.358960000000     0.473350000000     0.932910000000     0.0391424  
H24      H      0.137360000000     0.553430000000     0.060420000000     0.0442034  
H25      H      0.309780000000     0.470600000000     0.067510000000     0.0682585  
H26      H      0.186060000000     0.477640000000     0.947720000000     0.0515102  
H27      H      0.362520000000     0.534500000000     0.066760000000     0.0488296  
H28      H      0.307690000000     0.431230000000     0.983980000000     0.0606698  
H29      H      0.191160000000     0.556160000000     0.997290000000     0.0594515  
H30      H      0.128130000000     0.431370000000     0.980950000000     0.054406   
H31      H      0.326500000000     0.524610000000     0.939870000000     0.0368964  
H32      H      0.114860000000     0.431500000000     0.104370000000     0.152363   
H33      H      0.449480000000     0.781490000000     0.028100000000     0.0686159  
H34      H      0.487270000000     0.670430000000     0.927280000000     0.0461006  
H35      H      0.585680000000     0.832820000000     0.027960000000     0.0308307  
H36      H      0.583560000000     0.783610000000     0.962420000000     0.0508188  
H37      H      0.552760000000     0.719440000000     0.931030000000     0.0515695  
H38      H      0.481380000000     0.726160000000     0.062700000000     0.0550377  
H39      H      0.459910000000     0.861680000000     0.049630000000     0.0433001  
H40      H      0.537600000000     0.636240000000     0.928190000000     0.0387685  
H41      H      0.538520000000     0.814870000000     0.935170000000     0.0742091  
H42      H      0.531520000000     0.693970000000     0.058400000000     0.0531287  
H43      H      0.587580000000     0.867610000000     0.977400000000     0.0381927  
H44      H      0.457210000000     0.815860000000     0.979000000000     0.0797395  
H45      H      0.576880000000     0.689340000000     0.979040000000     0.0522287  
H46      H      0.469990000000     0.642240000000     0.057890000000     0.0557489  
H47      H      0.505450000000     0.827540000000     0.071340000000     0.0290993  
H48      H      0.403610000000     0.622710000000     0.958830000000     0.155438   
H49      H      0.549860000000     0.228200000000     0.056660000000     0.0661612  
H50      H      0.523650000000     0.333160000000     0.948630000000     0.0523825  
H51      H      0.431000000000     0.159430000000     0.026140000000     0.035224   
H52      H      0.433390000000     0.214500000000     0.964870000000     0.0490799  
H53      H      0.460430000000     0.281520000000     0.940360000000     0.0492948  
H54      H      0.506600000000     0.281170000000     0.082970000000     0.0580176  
H55      H      0.558690000000     0.142980000000     0.054450000000     0.0438991  
H56      H      0.472190000000     0.363310000000     0.936800000000     0.0421708  
H57      H      0.487230000000     0.193640000000     0.943660000000     0.0576182  
H58      H      0.454960000000     0.307460000000     0.068410000000     0.054858   
H59      H      0.438580000000     0.131670000000     0.971740000000     0.0395976  
H60      H      0.560490000000     0.205310000000     0.001470000000     0.0702752  
H61      H      0.427000000000     0.310490000000     0.983110000000     0.0554112  
H62      H      0.505520000000     0.367810000000     0.078700000000     0.0584535  
H63      H      0.507460000000     0.162890000000     0.080650000000     0.0333036  
H64      H      0.610160000000     0.395510000000     0.009920000000     0.329917   
H65      H      0.494630000000     0.927800000000     0.738420000000     0.0673604  
H66      H      0.582990000000     0.988420000000     0.848790000000     0.0442004  
H67      H      0.497210000000     0.054920000000     0.668900000000     0.0335534  
H68      H      0.561620000000     0.059490000000     0.719720000000     0.0480091  
H69      H      0.580120000000     0.046330000000     0.791150000000     0.0487837  
H70      H      0.453550000000     0.968220000000     0.783700000000     0.0559899  
H71      H      0.482720000000     0.924210000000     0.653910000000     0.0426956  
H72      H      0.576580000000     0.042700000000     0.875480000000     0.0400057  
H73      H      0.587850000000     0.009430000000     0.696170000000     0.0565669  
H74      H      0.453720000000     0.022530000000     0.808460000000     0.0531527  
H75      H      0.548940000000     0.052890000000     0.636160000000     0.0385948  
H76      H      0.546000000000     0.930970000000     0.707050000000     0.0669593  
H77      H      0.528460000000     0.070780000000     0.813480000000     0.0536628  
H78      H      0.450950000000     0.971090000000     0.870140000000     0.0565549  
H79      H      0.453980000000     0.971310000000     0.679630000000     0.0313446  
H80      H      0.544920000000     0.903980000000     0.907790000000     0.152132   
H81      H      0.422420000000     0.988350000000     0.225140000000     0.0649799  
H82      H      0.471610000000     0.897560000000     0.344630000000     0.0492135  
H83      H      0.560980000000     0.008780000000     0.193840000000     0.0369235  
H84      H      0.560780000000     0.931700000000     0.225020000000     0.0515738  
H85      H      0.531810000000     0.900790000000     0.288980000000     0.0539061  
H86      H      0.450210000000     0.024650000000     0.282670000000     0.0570085  
H87      H      0.438990000000     0.023900000000     0.148850000000     0.0428202  
H88      H      0.525380000000     0.901250000000     0.373350000000     0.0432581  
H89      H      0.520300000000     0.912770000000     0.183080000000     0.0574143  
H90      H      0.504380000000     0.028230000000     0.308300000000     0.0606924  
H91      H      0.574650000000     0.967950000000     0.150150000000     0.0423445  
H92      H      0.438260000000     0.947880000000     0.183320000000     0.0658203  
H93      H      0.556570000000     0.951080000000     0.314020000000     0.0731852  
H94      H      0.451300000000     0.026320000000     0.368800000000     0.0523836  
H95      H      0.477000000000     0.043960000000     0.192410000000     0.0323717  
H96      H      0.384810000000     0.972310000000     0.416980000000     0.149134   
H97      H      0.101650000000     0.555950000000     0.725720000000     0.0504352  
H98      H      0.959190000000     0.511160000000     0.829310000000     0.0372769  
H99      H      0.015010000000     0.451660000000     0.683070000000     0.0285506  
H100     H      0.964670000000     0.497660000000     0.733020000000     0.0537945  
H101     H      0.000850000000     0.454990000000     0.781460000000     0.0476235  
H102     H      0.078400000000     0.581260000000     0.795000000000     0.0573656  
H103     H      0.102570000000     0.539740000000     0.641330000000     0.0397422  
H104     H      0.975770000000     0.462650000000     0.861740000000     0.0403785  
H105     H      0.974070000000     0.546040000000     0.698360000000     0.0684145  
H106     H      0.097580000000     0.531570000000     0.824500000000     0.0508783  
H107     H      0.970340000000     0.477480000000     0.650490000000     0.0387723  
H108     H      0.056340000000     0.584050000000     0.695360000000     0.0620823  
H109     H      0.047820000000     0.457360000000     0.819340000000     0.0567791  
H110     H      0.061870000000     0.578440000000     0.880760000000     0.0531038  
H111     H      0.098450000000     0.489860000000     0.676610000000     0.0332299  
H112     H      0.939370000000     0.590160000000     0.881740000000     0.152082   
H113     H      0.014210000000     0.428620000000     0.225280000000     0.0522173  
H114     H      0.980680000000     0.575090000000     0.340350000000     0.0409643  
H115     H      0.913850000000     0.514970000000     0.171980000000     0.0303152  
H116     H      0.949240000000     0.561600000000     0.229680000000     0.0545301  
H117     H      0.925960000000     0.534840000000     0.293440000000     0.0495164  
H118     H      0.055460000000     0.461880000000     0.284070000000     0.0589872  
H119     H      0.004080000000     0.427150000000     0.140780000000     0.0458302  
H120     H      0.941140000000     0.547360000000     0.377230000000     0.0409658  
H121     H      0.002940000000     0.559440000000     0.201920000000     0.073277   
H122     H      0.012190000000     0.439410000000     0.320930000000     0.0530872  
H123     H      0.943820000000     0.560040000000     0.144050000000     0.0404432  
H124     H      0.045340000000     0.473500000000     0.197090000000     0.064232   
H125     H      0.932680000000     0.484240000000     0.325360000000     0.0552684  
H126     H      0.068250000000     0.477630000000     0.366300000000     0.0548123  
H127     H      0.951520000000     0.433710000000     0.171900000000     0.0354577  
H128     H      0.068610000000     0.598460000000     0.375160000000     0.152547   
H129     H      0.281370000000     0.037580000000     0.562130000000     0.0657803  
H130     H      0.175140000000     0.028000000000     0.456330000000     0.052664   
H131     H      0.332880000000     0.909710000000     0.539390000000     0.0344935  
H132     H      0.279250000000     0.916460000000     0.476380000000     0.053735   
H133     H      0.218720000000     0.958940000000     0.445730000000     0.0545004  
H134     H      0.223460000000     0.999680000000     0.589510000000     0.0587048  
H135     H      0.367320000000     0.033640000000     0.562490000000     0.0414576  
H136     H      0.138630000000     0.981710000000     0.441700000000     0.0446273  
H137     H      0.308520000000     0.964950000000     0.452720000000     0.0676633  
H138     H      0.191110000000     0.952050000000     0.573570000000     0.0526812  
H139     H      0.362620000000     0.909440000000     0.485430000000     0.0480842  
H140     H      0.307050000000     0.042640000000     0.507210000000     0.0695693  
H141     H      0.184610000000     0.928040000000     0.486620000000     0.054755   
H142     H      0.136820000000     0.007870000000     0.585270000000     0.0544141  
H143     H      0.339210000000     0.986710000000     0.589190000000     0.0313563  
H144     H      0.130480000000     0.131390000000     0.579190000000     0.166603   
H145     H      0.780310000000     0.025000000000     0.426910000000     0.0621608  
H146     H      0.670490000000     0.919580000000     0.476240000000     0.0421875  
H147     H      0.826750000000     0.039300000000     0.559330000000     0.0311317  
H148     H      0.784460000000     0.968960000000     0.566000000000     0.0473561  
H149     H      0.725390000000     0.929040000000     0.536730000000     0.0496539  
H150     H      0.717110000000     0.050480000000     0.451220000000     0.056358   
H151     H      0.864420000000     0.040160000000     0.433180000000     0.0447493  
H152     H      0.643010000000     0.919610000000     0.531070000000     0.0399493  
H153     H      0.818710000000     0.941230000000     0.522990000000     0.0580347  
H154     H      0.693590000000     0.053720000000     0.506660000000     0.0522138  
H155     H      0.863390000000     0.992370000000     0.572770000000     0.0397702  
H156     H      0.813550000000     0.975800000000     0.436160000000     0.0703706  
H157     H      0.695530000000     0.976970000000     0.560970000000     0.0531551  
H158     H      0.631320000000     0.044610000000     0.457260000000     0.0558246  
H159     H      0.830410000000     0.071460000000     0.473100000000     0.0309717  
H160     H      0.613400000000     0.934470000000     0.401830000000     0.152857   
H161     H      0.083780000000     0.734550000000     0.462420000000     0.0517145  
H162     H      0.946310000000     0.838830000000     0.531450000000     0.0380124  
H163     H      0.023090000000     0.682170000000     0.580490000000     0.0308882  
H164     H      0.964150000000     0.733520000000     0.551830000000     0.0539246  
H165     H      0.997990000000     0.792080000000     0.577750000000     0.0491988  
H166     H      0.045880000000     0.796490000000     0.435480000000     0.0586658  
H167     H      0.090440000000     0.650700000000     0.472330000000     0.0444764  
H168     H      0.976230000000     0.873290000000     0.571650000000     0.0396773  
H169     H      0.960760000000     0.703630000000     0.499300000000     0.0699518  
H170     H      0.075890000000     0.829110000000     0.477600000000     0.0516668  
H171     H      0.974380000000     0.650540000000     0.562200000000     0.0408181  
H172     H      0.034380000000     0.704480000000     0.441820000000     0.0638029  
H173     H      0.044680000000     0.827270000000     0.563850000000     0.0561158  
H174     H      0.028780000000     0.879620000000     0.434680000000     0.0550589  
H175     H      0.095610000000     0.682380000000     0.524840000000     0.0343153  
H176     H      0.908130000000     0.882370000000     0.456460000000     0.150831   
H177     H      0.070800000000     0.287960000000     0.470970000000     0.0658637  
H178     H      0.037990000000     0.176150000000     0.570320000000     0.0506259  
H179     H      0.946270000000     0.351200000000     0.492950000000     0.0329934  
H180     H      0.950710000000     0.300570000000     0.558550000000     0.0473044  
H181     H      0.979820000000     0.232550000000     0.582460000000     0.0488992  
H182     H      0.024580000000     0.239000000000     0.439980000000     0.0588553  
H183     H      0.073370000000     0.373650000000     0.465820000000     0.0429104  
H184     H      0.984340000000     0.149240000000     0.580000000000     0.0413932  
H185     H      0.002770000000     0.326200000000     0.578640000000     0.0564448  
H186     H      0.971040000000     0.215700000000     0.452910000000     0.0530394  
H187     H      0.950780000000     0.383130000000     0.545340000000     0.0371721  
H188     H      0.077220000000     0.315940000000     0.524410000000     0.0663954  
H189     H      0.943350000000     0.208980000000     0.538740000000     0.0533721  
H190     H      0.016360000000     0.152850000000     0.437920000000     0.0553878  
H191     H      0.024080000000     0.348350000000     0.440520000000     0.0316168  
H192     H      0.137530000000     0.122400000000     0.450980000000     0.169148   
N1       N      0.631660000000     0.504550000000     0.997330000000    -0.170223   
N2       N      0.867640000000     0.527640000000     0.985330000000    -0.178337   
N3       N      0.128400000000     0.489770000000     0.024830000000    -0.173502   
N4       N      0.364920000000     0.506510000000     0.998350000000    -0.175342   
N5       N      0.497700000000     0.635620000000     0.990000000000    -0.174407   
N6       N      0.524750000000     0.868710000000     0.015250000000    -0.177156   
N7       N      0.498360000000     0.370050000000     0.005590000000    -0.169813   
N8       N      0.496990000000     0.132620000000     0.016050000000    -0.178038   
N9       N      0.517840000000     0.999200000000     0.877890000000    -0.173261   
N10      N      0.511480000000     0.990360000000     0.640650000000    -0.1786     
N11      N      0.483810000000     0.961400000000     0.375710000000    -0.170002   
N12      N      0.507890000000     0.998410000000     0.145860000000    -0.178412   
N13      N      0.013760000000     0.524350000000     0.874930000000    -0.173834   
N14      N      0.037460000000     0.506260000000     0.641870000000    -0.178526   
N15      N      0.008560000000     0.518640000000     0.375100000000    -0.173568   
N16      N      0.973530000000     0.493370000000     0.138340000000    -0.17745    
N17      N      0.134460000000     0.005060000000     0.511750000000    -0.1694     
N18      N      0.368980000000     0.970290000000     0.525630000000    -0.178913   
N19      N      0.632480000000     0.979250000000     0.489630000000    -0.173911   
N20      N      0.868250000000     0.018760000000     0.503770000000    -0.178073   
N21      N      0.996920000000     0.880050000000     0.500880000000    -0.174304   
N22      N      0.033640000000     0.646580000000     0.518570000000    -0.178067   
N23      N      0.010040000000     0.145700000000     0.510870000000    -0.169329   
N24      N      0.010350000000     0.382550000000     0.502470000000    -0.178662   
Ni1      Ni     0.999930000000     0.011430000000     0.547300000000     1.0102     
Ni2      Ni     0.002950000000     0.014330000000     0.465880000000     1.01403    
Ni3      Ni     0.062590000000     0.511510000000     0.503720000000     1.0078     
Ni4      Ni     0.982530000000     0.517730000000     0.513770000000     1.00102    
Ni5      Ni     0.502480000000     0.935730000000     0.511940000000     1.00786    
Ni6      Ni     0.498660000000     0.015630000000     0.503920000000     0.998759   
Ni7      Ni     0.471990000000     0.996800000000     0.010520000000     1.01097    
Ni8      Ni     0.552150000000     0.004810000000     0.013450000000     0.995897   
Ni9      Ni     0.992660000000     0.469080000000     0.001340000000     1.0137     
Ni10     Ni     0.002400000000     0.548360000000     0.013100000000     1.00124    
Ni11     Ni     0.498230000000     0.505680000000     0.038620000000     1.01069    
Ni12     Ni     0.498180000000     0.500380000000     0.957270000000     1.00552    
O1       O      0.997600000000     0.946500000000     0.542120000000    -0.449653   
O2       O      0.002020000000     0.076580000000     0.546670000000    -0.442947   
O3       O      0.935430000000     0.013220000000     0.542600000000    -0.456228   
O4       O      0.064940000000     0.009620000000     0.547100000000    -0.444662   
O5       O      0.067750000000     0.009430000000     0.470980000000    -0.44162    
O6       O      0.937480000000     0.019010000000     0.466670000000    -0.4423     
O7       O      0.007610000000     0.078820000000     0.470750000000    -0.442548   
O8       O      0.999160000000     0.949600000000     0.465990000000    -0.443903   
O9       O      0.067510000000     0.510930000000     0.569450000000    -0.44778    
O10      O      0.052600000000     0.512350000000     0.439290000000    -0.443866   
O11      O      0.064920000000     0.576680000000     0.504450000000    -0.443703   
O12      O      0.054470000000     0.446780000000     0.502480000000    -0.445503   
O13      O      0.979300000000     0.453250000000     0.508930000000    -0.452335   
O14      O      0.990940000000     0.581790000000     0.519590000000    -0.450325   
O15      O      0.978310000000     0.523580000000     0.447920000000    -0.444297   
O16      O      0.992340000000     0.511050000000     0.578200000000    -0.449594   
O17      O      0.499960000000     0.931860000000     0.446500000000    -0.446381   
O18      O      0.504400000000     0.945350000000     0.576920000000    -0.44897    
O19      O      0.437490000000     0.935570000000     0.514210000000    -0.448206   
O20      O      0.567200000000     0.941310000000     0.508790000000    -0.451556   
O21      O      0.562710000000     0.014460000000     0.490880000000    -0.442485   
O22      O      0.434960000000     0.010930000000     0.517750000000    -0.446451   
O23      O      0.511370000000     0.019970000000     0.568100000000    -0.449154   
O24      O      0.485900000000     0.005710000000     0.440290000000    -0.446986   
O25      O      0.468210000000     0.061320000000     0.005870000000    -0.451348   
O26      O      0.481080000000     0.932850000000     0.015760000000    -0.44676    
O27      O      0.472110000000     0.001570000000     0.076100000000    -0.44842    
O28      O      0.477740000000     0.992480000000     0.945160000000    -0.442506   
O29      O      0.551260000000     0.009790000000     0.948060000000    -0.449614   
O30      O      0.547660000000     0.999040000000     0.078520000000    -0.449577   
O31      O      0.556020000000     0.939810000000     0.008280000000    -0.44616    
O32      O      0.542300000000     0.069150000000     0.018980000000    -0.443773   
O33      O      0.000300000000     0.479620000000     0.937420000000    -0.452882   
O34      O      0.985220000000     0.463790000000     0.066620000000    -0.444383   
O35      O      0.929040000000     0.480660000000     0.993630000000    -0.449263   
O36      O      0.057110000000     0.462910000000     0.008290000000    -0.442706   
O37      O      0.065530000000     0.536100000000     0.024680000000    -0.445413   
O38      O      0.938590000000     0.555170000000     0.001640000000    -0.444494   
O39      O      0.988560000000     0.538580000000     0.076440000000    -0.446424   
O40      O      0.015000000000     0.552850000000     0.948350000000    -0.43532    
O41      O      0.499910000000     0.440410000000     0.039950000000    -0.438655   
O42      O      0.496280000000     0.570070000000     0.031890000000    -0.449535   
O43      O      0.433140000000     0.505020000000     0.036290000000    -0.446637   
O44      O      0.563360000000     0.507310000000     0.035500000000    -0.442959   
O45      O      0.563240000000     0.498620000000     0.959850000000    -0.444484   
O46      O      0.432940000000     0.501930000000     0.960100000000    -0.448769   
O47      O      0.500580000000     0.565520000000     0.955910000000    -0.449872   
O48      O      0.496160000000     0.435990000000     0.964010000000    -0.447377   
O49      O      0.706610000000     0.421670000000     0.006360000000    -0.171942   
O50      O      0.695430000000     0.410860000000     0.915340000000    -0.174317   
O51      O      0.623930000000     0.400550000000     0.972040000000    -0.201801   
O52      O      0.204790000000     0.423370000000     0.083120000000    -0.180559   
O53      O      0.171130000000     0.358060000000     0.028270000000    -0.169239   
O54      O      0.114170000000     0.404150000000     0.084680000000    -0.260637   
O55      O      0.418570000000     0.713750000000     0.965110000000    -0.180542   
O56      O      0.389120000000     0.698050000000     0.051050000000    -0.173341   
O57      O      0.390990000000     0.628980000000     0.989660000000    -0.271235   
O58      O      0.589730000000     0.306380000000     0.004940000000    -0.175193   
O59      O      0.590710000000     0.316990000000     0.096650000000    -0.172459   
O60      O      0.598790000000     0.391420000000     0.041970000000    -0.313005   
O61      O      0.549720000000     0.910270000000     0.816610000000    -0.1882     
O62      O      0.462560000000     0.883010000000     0.824240000000    -0.175208   
O63      O      0.513430000000     0.894240000000     0.900900000000    -0.270336   
O64      O      0.396620000000     0.932210000000     0.303600000000    -0.172338   
O65      O      0.362820000000     0.012670000000     0.331320000000    -0.179073   
O66      O      0.382460000000     0.947490000000     0.394230000000    -0.268398   
O67      O      0.969440000000     0.595400000000     0.793910000000    -0.186085   
O68      O      0.026310000000     0.655830000000     0.832640000000    -0.170306   
O69      O      0.961470000000     0.615360000000     0.884620000000    -0.259509   
O70      O      0.054350000000     0.576050000000     0.285780000000    -0.182881   
O71      O      0.127610000000     0.523830000000     0.302450000000    -0.167985   
O72      O      0.095870000000     0.579670000000     0.369050000000    -0.259986   
O73      O      0.201790000000     0.090960000000     0.513620000000    -0.174194   
O74      O      0.201810000000     0.084200000000     0.605870000000    -0.188046   
O75      O      0.123020000000     0.103730000000     0.561480000000    -0.256913   
O76      O      0.702320000000     0.957400000000     0.398210000000    -0.182703   
O77      O      0.666130000000     0.035310000000     0.366640000000    -0.173191   
O78      O      0.610500000000     0.964940000000     0.387840000000    -0.272946   
O79      O      0.935860000000     0.794250000000     0.451720000000    -0.184284   
O80      O      0.974290000000     0.825540000000     0.374170000000    -0.167339   
O81      O      0.922230000000     0.881920000000     0.425630000000    -0.258828   
O82      O      0.106880000000     0.197910000000     0.515900000000    -0.174677   
O83      O      0.104450000000     0.201420000000     0.423500000000    -0.184434   
O84      O      0.107500000000     0.119500000000     0.466040000000    -0.256004   
S1       S      0.671220000000     0.429610000000     0.962940000000     0.281488   
S2       S      0.160620000000     0.408300000000     0.051320000000     0.280375   
S3       S      0.417690000000     0.676260000000     0.007390000000     0.276768   
S4       S      0.573910000000     0.339870000000     0.047670000000     0.299951   
S5       S      0.502970000000     0.914240000000     0.848050000000     0.277797   
S6       S      0.398500000000     0.971190000000     0.344430000000     0.275917   
S7       S      0.998180000000     0.607900000000     0.841080000000     0.280582   
S8       S      0.080950000000     0.545670000000     0.325300000000     0.281029   
S9       S      0.171950000000     0.074390000000     0.558730000000     0.282806   
S10      S      0.658440000000     0.992420000000     0.402450000000     0.277734   
S11      S      0.959860000000     0.838990000000     0.427310000000     0.280412   
S12      S      0.087290000000     0.172740000000     0.469180000000     0.284507   


