data_structure

_audit_creation_method RASPA-1.0
_audit_creation_date 2023-5-22
_audit_author_name 'Poobodin Mano'

_cell_length_a    43.0432
_cell_length_b    42.4537
_cell_length_c    28.3492
_cell_angle_alpha 90
_cell_angle_beta  90
_cell_angle_gamma 90
_cell_volume      51803.7

_symmetry_cell_setting          triclinic
_symmetry_space_group_name_Hall 'P 1'
_symmetry_space_group_name_H-M  'P 1'
_symmetry_Int_Tables_number     1

_symmetry_equiv_pos_as_xyz 'x,y,z'

loop_
_atom_site_label
_atom_site_type_symbol
_atom_site_fract_x
_atom_site_fract_y
_atom_site_fract_z
_atom_site_charge
C1       C      0.486050000000     0.848080000000     0.132460000000     0.429468   
C2       C      0.469920000000     0.855110000000     0.954310000000     0.431154   
C3       C      0.419380000000     0.859640000000     0.054720000000     0.430271   
C4       C      0.535770000000     0.843130000000     0.031840000000     0.430272   
C5       C      0.484410000000     0.851120000000     0.471990000000     0.430358   
C6       C      0.527960000000     0.856490000000     0.639380000000     0.431468   
C7       C      0.561890000000     0.847220000000     0.524660000000     0.428684   
C8       C      0.451340000000     0.860780000000     0.587020000000     0.430397   
C9       C      0.855850000000     0.538910000000     0.081490000000     0.429785   
C10      C      0.860550000000     0.524860000000     0.902480000000     0.427658   
C11      C      0.862780000000     0.591520000000     0.981230000000     0.430176   
C12      C      0.853320000000     0.472600000000     0.002560000000     0.430151   
C13      C      0.861260000000     0.471430000000     0.393190000000     0.430407   
C14      C      0.861580000000     0.513830000000     0.561980000000     0.428633   
C15      C      0.882010000000     0.439590000000     0.507790000000     0.4296     
C16      C      0.841200000000     0.545080000000     0.447280000000     0.430384   
C17      C      0.512050000000     0.179100000000     0.137170000000     0.431836   
C18      C      0.518060000000     0.171780000000     0.957810000000     0.430526   
C19      C      0.574310000000     0.182860000000     0.050780000000     0.429873   
C20      C      0.456750000000     0.168100000000     0.044700000000     0.430844   
C21      C      0.571260000000     0.184750000000     0.454640000000     0.432397   
C22      C      0.543740000000     0.173710000000     0.628840000000     0.430316   
C23      C      0.499600000000     0.188120000000     0.523870000000     0.430135   
C24      C      0.614530000000     0.170510000000     0.559740000000     0.431113   
C25      C      0.159020000000     0.555530000000     0.059250000000     0.431073   
C26      C      0.171360000000     0.520130000000     0.888090000000     0.430536   
C27      C      0.169570000000     0.480730000000     0.000170000000     0.430919   
C28      C      0.160720000000     0.595320000000     0.947550000000     0.431163   
C29      C      0.171480000000     0.542180000000     0.554750000000     0.430291   
C30      C      0.165470000000     0.510120000000     0.381340000000     0.431043   
C31      C      0.181150000000     0.469000000000     0.489350000000     0.430078   
C32      C      0.155790000000     0.582930000000     0.446530000000     0.430712   
C33      C      0.752910000000     0.852450000000     0.994830000000     0.430159   
C34      C      0.866040000000     0.887750000000     0.984170000000     0.430933   
C35      C      0.826660000000     0.811770000000     0.990160000000     0.430439   
C36      C      0.791670000000     0.926600000000     0.988310000000     0.432519   
C37      C      0.781020000000     0.826450000000     0.487160000000     0.428935   
C38      C      0.898710000000     0.812900000000     0.498850000000     0.430246   
C39      C      0.833980000000     0.761810000000     0.474890000000     0.429603   
C40      C      0.846280000000     0.878940000000     0.512000000000     0.428092   
C41      C      0.796340000000     0.184300000000     0.010030000000     0.430103   
C42      C      0.914200000000     0.196280000000     0.017020000000     0.430847   
C43      C      0.850750000000     0.249930000000     0.023690000000     0.430455   
C44      C      0.861440000000     0.131140000000     0.003320000000     0.432183   
C45      C      0.903510000000     0.219660000000     0.542930000000     0.428543   
C46      C      0.881400000000     0.101380000000     0.546040000000     0.427983   
C47      C      0.835370000000     0.172150000000     0.534720000000     0.430722   
C48      C      0.951030000000     0.149130000000     0.554850000000     0.43066    
C49      C      0.204440000000     0.261130000000     0.008270000000     0.43126    
C50      C      0.163170000000     0.150800000000     0.043420000000     0.429194   
C51      C      0.239850000000     0.185830000000     0.029190000000     0.430453   
C52      C      0.128740000000     0.227430000000     0.022810000000     0.431398   
C53      C      0.230980000000     0.255920000000     0.570500000000     0.430038   
C54      C      0.211590000000     0.137470000000     0.580690000000     0.428536   
C55      C      0.279810000000     0.186310000000     0.576070000000     0.429409   
C56      C      0.162910000000     0.206810000000     0.574390000000     0.429791   
C57      C      0.199130000000     0.883640000000     0.058760000000     0.42973    
C58      C      0.085150000000     0.864980000000     0.017420000000     0.429834   
C59      C      0.152950000000     0.816350000000     0.023150000000     0.428791   
C60      C      0.131360000000     0.933010000000     0.051930000000     0.427522   
C61      C      0.168260000000     0.799590000000     0.517920000000     0.429702   
C62      C      0.177560000000     0.916650000000     0.556880000000     0.428901   
C63      C      0.231630000000     0.851880000000     0.545170000000     0.429444   
C64      C      0.114050000000     0.864680000000     0.530370000000     0.430096   
C65      C      0.211150000000     0.088540000000     0.628470000000     0.0117939  
C66      C      0.181090000000     0.971320000000     0.527690000000     0.0140748  
C67      C      0.175330000000     0.960180000000     0.615290000000     0.0117611  
C68      C      0.204850000000     0.996710000000     0.539130000000    -0.102363   
C69      C      0.188010000000     0.061170000000     0.634650000000    -0.102573   
C70      C      0.196590000000     0.988490000000     0.626350000000    -0.102345   
C71      C      0.186260000000     0.042190000000     0.589490000000     0.0195091  
C72      C      0.196280000000     0.011700000000     0.585660000000     0.0192889  
C73      C      0.202190000000     0.087020000000     0.539720000000     0.0138573  
C74      C      0.177250000000     0.062090000000     0.547470000000    -0.102646   
C75      C      0.124890000000     0.985500000000     0.017500000000     0.0149708  
C76      C      0.142320000000     0.111430000000     0.100190000000     0.0116853  
C77      C      0.142340000000     0.100780000000     0.012250000000     0.0144979  
C78      C      0.149220000000     0.076260000000     0.109640000000    -0.10231    
C79      C      0.106240000000     0.015020000000     0.028290000000    -0.10371    
C80      C      0.153450000000     0.067400000000     0.021570000000    -0.102561   
C81      C      0.120470000000     0.030570000000     0.070790000000     0.0203487  
C82      C      0.139840000000     0.056090000000     0.067770000000     0.0196164  
C83      C      0.131310000000     0.977900000000     0.107190000000     0.0111868  
C84      C      0.116550000000     0.010700000000     0.114640000000    -0.102744   
C85      C      0.002710000000     0.138020000000     0.519750000000     0.0156529  
C86      C      0.112820000000     0.214910000000     0.616530000000     0.0148236  
C87      C      0.114420000000     0.216600000000     0.529340000000     0.0156997  
C88      C      0.087220000000     0.189770000000     0.616690000000    -0.100196   
C89      C      0.027360000000     0.163870000000     0.518540000000    -0.100227   
C90      C      0.090270000000     0.190480000000     0.524220000000    -0.10032    
C91      C      0.042630000000     0.170070000000     0.566460000000     0.0168391  
C92      C      0.071120000000     0.184870000000     0.568980000000     0.0167917  
C93      C      0.997080000000     0.140830000000     0.606450000000     0.0150523  
C94      C      0.022720000000     0.165760000000     0.610880000000    -0.100299   
C95      C      0.964130000000     0.205160000000     0.975510000000     0.0136195  
C96      C      0.083760000000     0.252860000000     0.062350000000     0.0144963  
C97      C      0.082320000000     0.242200000000     0.975980000000     0.0154704  
C98      C      0.052030000000     0.237100000000     0.069470000000    -0.101499   
C99      C      0.981680000000     0.236250000000     0.979930000000    -0.101278   
C100     C      0.051690000000     0.224400000000     0.980270000000    -0.101916   
C101     C      0.001530000000     0.235280000000     0.024170000000     0.0171573  
C102     C      0.033400000000     0.234730000000     0.023790000000     0.0183134  
C103     C      0.962780000000     0.200380000000     0.064050000000     0.0125577  
C104     C      0.982320000000     0.230560000000     0.068760000000    -0.101527   
C105     C      0.067190000000     0.875940000000     0.481980000000     0.014802   
C106     C      0.945940000000     0.800360000000     0.545630000000     0.0149778  
C107     C      0.949770000000     0.807210000000     0.459080000000     0.0155885  
C108     C      0.972080000000     0.824050000000     0.554870000000    -0.100405   
C109     C      0.041070000000     0.852150000000     0.473040000000    -0.100281   
C110     C      0.975800000000     0.831530000000     0.463250000000    -0.100577   
C111     C      0.021100000000     0.844710000000     0.516430000000     0.0168106  
C112     C      0.991860000000     0.831840000000     0.511420000000     0.0170174  
C113     C      0.062520000000     0.870280000000     0.568660000000     0.01546    
C114     C      0.037010000000     0.845420000000     0.564690000000    -0.100438   
C115     C      0.872560000000     0.052240000000     0.501370000000     0.0140699  
C116     C      0.856040000000     0.920670000000     0.571250000000     0.0120562  
C117     C      0.856760000000     0.932890000000     0.483420000000     0.0138384  
C118     C      0.842930000000     0.953780000000     0.581140000000    -0.102658   
C119     C      0.885770000000     0.019240000000     0.507790000000    -0.102737   
C120     C      0.841000000000     0.964280000000     0.493760000000    -0.102654   
C121     C      0.868770000000     0.002940000000     0.547580000000     0.0192059  
C122     C      0.851520000000     0.976100000000     0.541480000000     0.0193064  
C123     C      0.861770000000     0.054720000000     0.589370000000     0.0120137  
C124     C      0.872000000000     0.020080000000     0.594290000000    -0.102475   
C125     C      0.032510000000     0.849370000000     0.043560000000     0.0163332  
C126     C      0.913210000000     0.902130000000     0.937840000000     0.0139829  
C127     C      0.912050000000     0.910040000000     0.024310000000     0.0170441  
C128     C      0.944950000000     0.885350000000     0.940860000000    -0.0999139  
C129     C      0.005430000000     0.872370000000     0.043480000000    -0.1011     
C130     C      0.940040000000     0.889090000000     0.033180000000    -0.100542   
C131     C      0.991180000000     0.876400000000     0.994500000000     0.0171459  
C132     C      0.960570000000     0.885360000000     0.989580000000     0.0168268  
C133     C      0.043060000000     0.857000000000     0.958270000000     0.013868   
C134     C      0.013460000000     0.876980000000     0.952310000000    -0.100453   
C135     C      0.867640000000     0.078090000000     0.038470000000     0.0162043  
C136     C      0.778950000000     0.975690000000     0.944770000000     0.0156119  
C137     C      0.777430000000     0.975110000000     0.031620000000     0.0171406  
C138     C      0.804520000000     0.000840000000     0.943470000000    -0.100159   
C139     C      0.838580000000     0.057600000000     0.040760000000    -0.100344   
C140     C      0.804160000000     0.998390000000     0.036760000000    -0.100024   
C141     C      0.829930000000     0.042970000000     0.993100000000     0.0170108  
C142     C      0.811830000000     0.016280000000     0.991230000000     0.0170259  
C143     C      0.864700000000     0.083880000000     0.951840000000     0.0154404  
C144     C      0.836290000000     0.062260000000     0.948340000000    -0.100401   
C145     C      0.119090000000     0.627770000000     0.449970000000     0.0141477  
C146     C      0.182400000000     0.755480000000     0.465250000000     0.0142411  
C147     C      0.151680000000     0.745680000000     0.539850000000     0.0133103  
C148     C      0.160740000000     0.733690000000     0.437960000000    -0.102175   
C149     C      0.125020000000     0.655220000000     0.483970000000    -0.101714   
C150     C      0.129660000000     0.723500000000     0.512890000000    -0.102494   
C151     C      0.148700000000     0.677890000000     0.463290000000     0.0178401  
C152     C      0.146620000000     0.709540000000     0.470900000000     0.0187044  
C153     C      0.171350000000     0.634530000000     0.412730000000     0.0150846  
C154     C      0.178320000000     0.663050000000     0.443920000000    -0.101435   
C155     C      0.249310000000     0.303050000000     0.526600000000     0.0143884  
C156     C      0.165500000000     0.418110000000     0.524370000000     0.0141765  
C157     C      0.215160000000     0.422920000000     0.477350000000     0.0141968  
C158     C      0.182230000000     0.397930000000     0.561480000000    -0.102716   
C159     C      0.227890000000     0.328810000000     0.507390000000    -0.101301   
C160     C      0.232060000000     0.402120000000     0.512980000000    -0.102227   
C161     C      0.215290000000     0.349830000000     0.546520000000     0.0175569  
C162     C      0.209390000000     0.380950000000     0.538830000000     0.0188799  
C163     C      0.226090000000     0.308550000000     0.607240000000     0.014122   
C164     C      0.202540000000     0.332890000000     0.589490000000    -0.101697   
C165     C      0.145010000000     0.760960000000     0.046600000000     0.01472    
C166     C      0.185390000000     0.645880000000     0.924330000000     0.0152386  
C167     C      0.128570000000     0.643430000000     0.940130000000     0.0141728  
C168     C      0.190210000000     0.670590000000     0.962940000000    -0.101184   
C169     C      0.133930000000     0.732160000000     0.018610000000    -0.102688   
C170     C      0.131150000000     0.667290000000     0.980530000000    -0.100824   
C171     C      0.160010000000     0.718690000000     0.988560000000     0.0175571  
C172     C      0.160040000000     0.687770000000     0.975040000000     0.0168136  
C173     C      0.174240000000     0.775190000000     0.971450000000     0.0146574  
C174     C      0.185970000000     0.741090000000     0.974580000000    -0.102878   
C175     C      0.148330000000     0.426640000000     0.999290000000     0.0142863  
C176     C      0.229640000000     0.310880000000     0.033890000000     0.0154563  
C177     C      0.206930000000     0.306140000000     0.953190000000     0.0142932  
C178     C      0.209650000000     0.339810000000     0.044630000000    -0.101318   
C179     C      0.163930000000     0.400130000000     0.971230000000    -0.102092   
C180     C      0.184490000000     0.333480000000     0.962270000000    -0.10128    
C181     C      0.191120000000     0.386870000000     0.999050000000     0.0183239  
C182     C      0.197480000000     0.355430000000     0.999830000000     0.0173791  
C183     C      0.198060000000     0.438350000000     0.042060000000     0.0150824  
C184     C      0.214360000000     0.411040000000     0.017090000000    -0.10206    
C185     C      0.144240000000     0.557150000000     0.628280000000     0.0166671  
C186     C      0.204670000000     0.507270000000     0.818930000000     0.0147088  
C187     C      0.147830000000     0.499100000000     0.814770000000     0.016487   
C188     C      0.204840000000     0.527050000000     0.773570000000    -0.100317   
C189     C      0.143760000000     0.535030000000     0.670510000000    -0.100528   
C190     C      0.144240000000     0.519950000000     0.771360000000    -0.100638   
C191     C      0.174250000000     0.535010000000     0.698230000000     0.016906   
C192     C      0.174710000000     0.525540000000     0.744760000000     0.0170136  
C193     C      0.201690000000     0.559030000000     0.625290000000     0.0142747  
C194     C      0.204580000000     0.539110000000     0.670410000000    -0.100143   
C195     C      0.126050000000     0.564410000000     0.130090000000     0.0151548  
C196     C      0.192090000000     0.499280000000     0.305640000000     0.0168154  
C197     C      0.134920000000     0.494880000000     0.310350000000     0.0146104  
C198     C      0.191090000000     0.524980000000     0.268190000000    -0.10043    
C199     C      0.127440000000     0.540740000000     0.170970000000    -0.100223   
C200     C      0.130320000000     0.518480000000     0.269810000000    -0.100161   
C201     C      0.158150000000     0.540720000000     0.198480000000     0.016951   
C202     C      0.159960000000     0.526640000000     0.242200000000     0.0170445  
C203     C      0.182430000000     0.574810000000     0.133750000000     0.0162882  
C204     C      0.187870000000     0.550520000000     0.172530000000    -0.100208   
C205     C      0.324970000000     0.159860000000     0.539600000000     0.0151549  
C206     C      0.452920000000     0.221820000000     0.532280000000     0.0134477  
C207     C      0.448700000000     0.168520000000     0.494830000000     0.01475    
C208     C      0.427210000000     0.213720000000     0.567880000000    -0.101581   
C209     C      0.352480000000     0.176600000000     0.516800000000    -0.101885   
C210     C      0.422410000000     0.159430000000     0.528430000000    -0.10163    
C211     C      0.374570000000     0.189300000000     0.554020000000     0.0181495  
C212     C      0.406000000000     0.188480000000     0.547740000000     0.017581   
C213     C      0.331470000000     0.191370000000     0.613980000000     0.0135882  
C214     C      0.359450000000     0.208880000000     0.592630000000    -0.101818   
C215     C      0.786860000000     0.169300000000     0.487930000000     0.0138503  
C216     C      0.664520000000     0.189700000000     0.592310000000     0.015151   
C217     C      0.661540000000     0.137370000000     0.551180000000     0.0134843  
C218     C      0.691340000000     0.199870000000     0.560580000000    -0.101968   
C219     C      0.757650000000     0.151170000000     0.503480000000    -0.102116   
C220     C      0.688240000000     0.146630000000     0.517930000000    -0.102104   
C221     C      0.740100000000     0.169650000000     0.540880000000     0.0184523  
C222     C      0.708510000000     0.171310000000     0.541470000000     0.0181899  
C223     C      0.788250000000     0.198340000000     0.565220000000     0.0156969  
C224     C      0.759450000000     0.180920000000     0.582360000000    -0.102035   
C225     C      0.405240000000     0.188010000000     0.067840000000     0.0144568  
C226     C      0.284480000000     0.159800000000     0.990700000000     0.0136019  
C227     C      0.291020000000     0.191760000000     0.066280000000     0.0139042  
C228     C      0.310030000000     0.137060000000     0.007540000000    -0.103378   
C229     C      0.376120000000     0.193940000000     0.038640000000    -0.102642   
C230     C      0.316270000000     0.169000000000     0.082120000000    -0.102775   
C231     C      0.360990000000     0.163000000000     0.025480000000     0.0203314  
C232     C      0.331900000000     0.154810000000     0.039590000000     0.0197395  
C233     C      0.411090000000     0.134220000000     0.029980000000     0.0141167  
C234     C      0.381970000000     0.140150000000     0.999820000000    -0.103621   
C235     C      0.749250000000     0.159240000000     0.042690000000     0.0147834  
C236     C      0.620530000000     0.216100000000     0.035410000000     0.013443   
C237     C      0.626240000000     0.162840000000     0.073660000000     0.0143946  
C238     C      0.647100000000     0.208600000000     0.000930000000    -0.102325   
C239     C      0.720350000000     0.175410000000     0.062130000000    -0.10203    
C240     C      0.652810000000     0.154680000000     0.040190000000    -0.10195    
C241     C      0.700190000000     0.187700000000     0.022290000000     0.0184314  
C242     C      0.668680000000     0.184390000000     0.022660000000     0.0182606  
C243     C      0.746250000000     0.191650000000     0.968380000000     0.0137148  
C244     C      0.716880000000     0.208330000000     0.986640000000    -0.102288   
C245     C      0.533460000000     0.199700000000     0.704890000000     0.0135622  
C246     C      0.517880000000     0.138750000000     0.885790000000     0.0124809  
C247     C      0.517040000000     0.198710000000     0.880590000000     0.0136001  
C248     C      0.538940000000     0.137820000000     0.842140000000    -0.102753   
C249     C      0.508670000000     0.195360000000     0.742800000000    -0.102953   
C250     C      0.539460000000     0.196650000000     0.838990000000    -0.10272    
C251     C      0.516700000000     0.166010000000     0.770210000000     0.0204174  
C252     C      0.532560000000     0.166630000000     0.812170000000     0.0205322  
C253     C      0.536890000000     0.139450000000     0.698600000000     0.011854   
C254     C      0.513540000000     0.137080000000     0.739410000000    -0.102503   
C255     C      0.587860000000     0.159360000000     0.380360000000     0.0180286  
C256     C      0.506310000000     0.210870000000     0.210320000000     0.0152051  
C257     C      0.507720000000     0.152640000000     0.214790000000     0.0160458  
C258     C      0.532970000000     0.214320000000     0.245760000000    -0.100604   
C259     C      0.563220000000     0.155150000000     0.342480000000    -0.100543   
C260     C      0.535220000000     0.152640000000     0.248670000000    -0.100514   
C261     C      0.555220000000     0.185640000000     0.316340000000     0.0173062  
C262     C      0.539850000000     0.184250000000     0.273800000000     0.0171068  
C263     C      0.582050000000     0.217170000000     0.383440000000     0.0150823  
C264     C      0.558750000000     0.217220000000     0.342350000000    -0.100181   
C265     C      0.890880000000     0.271060000000     0.577890000000     0.0134791  
C266     C      0.925220000000     0.401550000000     0.514780000000     0.0145642  
C267     C      0.874870000000     0.392430000000     0.557920000000     0.0140598  
C268     C      0.925860000000     0.367190000000     0.498110000000    -0.102724   
C269     C      0.909340000000     0.300710000000     0.589430000000    -0.102455   
C270     C      0.875620000000     0.357510000000     0.544660000000    -0.101688   
C271     C      0.918680000000     0.317290000000     0.544530000000     0.0189913  
C272     C      0.908270000000     0.346540000000     0.532500000000     0.0190442  
C273     C      0.919030000000     0.267370000000     0.499050000000     0.0134826  
C274     C      0.937770000000     0.297070000000     0.511520000000    -0.103032   
C275     C      0.798180000000     0.583410000000     0.440140000000     0.0148049  
C276     C      0.844930000000     0.716770000000     0.422190000000     0.0135812  
C277     C      0.817170000000     0.708840000000     0.500340000000     0.013482   
C278     C      0.822950000000     0.693030000000     0.399250000000    -0.102192   
C279     C      0.798820000000     0.615610000000     0.464370000000    -0.101974   
C280     C      0.794400000000     0.685940000000     0.476610000000    -0.102631   
C281     C      0.818240000000     0.638850000000     0.436290000000     0.0185509  
C282     C      0.810930000000     0.670120000000     0.435840000000     0.0185601  
C283     C      0.849020000000     0.593790000000     0.400300000000     0.014689   
C284     C      0.850060000000     0.627320000000     0.420160000000    -0.10137    
C285     C      0.875520000000     0.419580000000     0.990800000000     0.0139051  
C286     C      0.838680000000     0.296780000000     0.072000000000     0.0143147  
C287     C      0.871550000000     0.300900000000     0.998070000000     0.0146163  
C288     C      0.822870000000     0.328290000000     0.060080000000    -0.103443   
C289     C      0.882120000000     0.393620000000     0.026600000000    -0.102081   
C290     C      0.856250000000     0.332160000000     0.985920000000    -0.102693   
C291     C      0.852050000000     0.378210000000     0.041650000000     0.0185313  
C292     C      0.844490000000     0.348070000000     0.030160000000     0.0201888  
C293     C      0.821640000000     0.426540000000     0.025760000000     0.0133263  
C294     C      0.828510000000     0.400710000000     0.062360000000    -0.102751   
C295     C      0.823480000000     0.759670000000     0.952200000000     0.0143075  
C296     C      0.892720000000     0.640840000000     0.990830000000     0.0142189  
C297     C      0.842360000000     0.640250000000     0.945270000000     0.0147792  
C298     C      0.882780000000     0.671000000000     0.016780000000    -0.102954   
C299     C      0.849190000000     0.737230000000     0.937040000000    -0.102461   
C300     C      0.832000000000     0.670480000000     0.969660000000    -0.102142   
C301     C      0.862370000000     0.720800000000     0.979830000000     0.0188232  
C302     C      0.859820000000     0.689190000000     0.986830000000     0.0194023  
C303     C      0.849390000000     0.766030000000     0.032050000000     0.0132531  
C304     C      0.875120000000     0.742860000000     0.017060000000    -0.102792   
C305     C      0.832430000000     0.526160000000     0.635100000000     0.0146339  
C306     C      0.891800000000     0.515450000000     0.830170000000     0.0124834  
C307     C      0.833360000000     0.517770000000     0.826030000000     0.0135665  
C308     C      0.894330000000     0.535040000000     0.784660000000    -0.101859   
C309     C      0.837970000000     0.510280000000     0.682560000000    -0.101787   
C310     C      0.835470000000     0.538970000000     0.782640000000    -0.101933   
C311     C      0.865380000000     0.525360000000     0.707780000000     0.0176476  
C312     C      0.864980000000     0.531870000000     0.755220000000     0.0180798  
C313     C      0.888770000000     0.540370000000     0.628520000000     0.012727   
C314     C      0.894980000000     0.527260000000     0.678330000000    -0.101406   
C315     C      0.832050000000     0.455810000000     0.321330000000     0.0144957  
C316     C      0.883040000000     0.545300000000     0.157940000000     0.0163965  
C317     C      0.825720000000     0.540970000000     0.156370000000     0.0142594  
C318     C      0.886710000000     0.516700000000     0.190060000000    -0.100455   
C319     C      0.828090000000     0.481450000000     0.283490000000    -0.0998001  
C320     C      0.825930000000     0.512590000000     0.190040000000    -0.100105   
C321     C      0.858080000000     0.490510000000     0.257350000000     0.0166676  
C322     C      0.856800000000     0.507760000000     0.216150000000     0.0167125  
C323     C      0.889210000000     0.459430000000     0.319050000000     0.0172481  
C324     C      0.889260000000     0.485830000000     0.282560000000    -0.0999531  
C325     C      0.284270000000     0.862700000000     0.514140000000     0.0141463  
C326     C      0.403930000000     0.839190000000     0.625460000000     0.0145871  
C327     C      0.404710000000     0.894430000000     0.595470000000     0.0144857  
C328     C      0.374390000000     0.831870000000     0.597350000000    -0.101159   
C329     C      0.309750000000     0.881570000000     0.539210000000    -0.102256   
C330     C      0.376650000000     0.888390000000     0.563570000000    -0.101253   
C331     C      0.325470000000     0.861200000000     0.576220000000     0.0183395  
C332     C      0.356890000000     0.861630000000     0.582910000000     0.0171211  
C333     C      0.277120000000     0.828290000000     0.585570000000     0.013931   
C334     C      0.303500000000     0.845460000000     0.610980000000    -0.101774   
C335     C      0.729910000000     0.807830000000     0.514370000000     0.0137935  
C336     C      0.609160000000     0.870900000000     0.490480000000     0.0133601  
C337     C      0.610080000000     0.816050000000     0.527020000000     0.0131796  
C338     C      0.633410000000     0.860370000000     0.453910000000    -0.103125   
C339     C      0.699570000000     0.824350000000     0.527150000000    -0.102231   
C340     C      0.634480000000     0.806220000000     0.490870000000    -0.102349   
C341     C      0.684040000000     0.837940000000     0.483730000000     0.0195532  
C342     C      0.653040000000     0.834510000000     0.475150000000     0.0191069  
C343     C      0.734680000000     0.841570000000     0.441110000000     0.0141352  
C344     C      0.704590000000     0.859000000000     0.454040000000    -0.103036   
C345     C      0.242480000000     0.876570000000     0.115030000000     0.0144093  
C346     C      0.373300000000     0.892600000000     0.039260000000     0.0137861  
C347     C      0.367740000000     0.837870000000     0.074120000000     0.0139235  
C348     C      0.347360000000     0.904370000000     0.071420000000    -0.102329   
C349     C      0.272470000000     0.858270000000     0.105460000000    -0.102283   
C350     C      0.342110000000     0.849780000000     0.107320000000    -0.103014   
C351     C      0.294660000000     0.878150000000     0.076540000000     0.0182558  
C352     C      0.325890000000     0.877550000000     0.084560000000     0.0190062  
C353     C      0.249880000000     0.908910000000     0.041680000000     0.0138349  
C354     C      0.281050000000     0.892770000000     0.032090000000    -0.101452   
C355     C      0.579180000000     0.809550000000     0.005310000000     0.0141715  
C356     C      0.704130000000     0.857820000000     0.038880000000     0.0138529  
C357     C      0.704930000000     0.833170000000     0.956850000000     0.0137145  
C358     C      0.678120000000     0.835360000000     0.052840000000    -0.10278    
C359     C      0.607240000000     0.816940000000     0.973670000000    -0.1035     
C360     C      0.678930000000     0.810410000000     0.971850000000    -0.10337    
C361     C      0.630320000000     0.836320000000     0.001440000000     0.0201232  
C362     C      0.659740000000     0.826070000000     0.009780000000     0.019705   
C363     C      0.588950000000     0.859380000000     0.052450000000     0.0141379  
C364     C      0.617350000000     0.866420000000     0.022130000000    -0.102427   
C365     C      0.543630000000     0.887180000000     0.710190000000     0.0149558  
C366     C      0.461710000000     0.829280000000     0.876750000000     0.0151708  
C367     C      0.466120000000     0.887310000000     0.881400000000     0.0158207  
C368     C      0.489250000000     0.826630000000     0.842870000000    -0.100252   
C369     C      0.520180000000     0.889180000000     0.750940000000    -0.0998638  
C370     C      0.493420000000     0.888210000000     0.846860000000    -0.100574   
C371     C      0.513450000000     0.857900000000     0.776340000000     0.0169857  
C372     C      0.497470000000     0.857770000000     0.818450000000     0.0170207  
C373     C      0.544320000000     0.829150000000     0.712420000000     0.017156   
C374     C      0.519100000000     0.826920000000     0.750000000000    -0.100246   
C375     C      0.462330000000     0.878620000000     0.402590000000     0.0161461  
C376     C      0.494930000000     0.816150000000     0.204670000000     0.0141557  
C377     C      0.502410000000     0.874200000000     0.206430000000     0.0155712  
C378     C      0.476730000000     0.816810000000     0.251230000000    -0.100752   
C379     C      0.478120000000     0.879170000000     0.354490000000    -0.100493   
C380     C      0.482900000000     0.877810000000     0.250970000000    -0.101095   
C381     C      0.475820000000     0.848030000000     0.327560000000     0.016987   
C382     C      0.480530000000     0.847330000000     0.279430000000     0.0171071  
C383     C      0.461360000000     0.820370000000     0.405990000000     0.0147103  
C384     C      0.475070000000     0.817400000000     0.356180000000    -0.100336   
H1       H      0.195610000000     0.047480000000     0.665770000000     0.0426455  
H2       H      0.157900000000     0.982470000000     0.523050000000     0.0277672  
H3       H      0.224380000000     0.075220000000     0.530100000000     0.0275298  
H4       H      0.172680000000     0.048610000000     0.514760000000     0.0431259  
H5       H      0.207450000000     0.013370000000     0.509360000000     0.043089   
H6       H      0.188470000000     0.998560000000     0.660140000000     0.0427343  
H7       H      0.208960000000     0.104430000000     0.659450000000     0.0366775  
H8       H      0.187670000000     0.960430000000     0.493470000000     0.0363648  
H9       H      0.154950000000     0.074210000000     0.555480000000     0.0514562  
H10      H      0.220760000000     0.979980000000     0.631740000000     0.0493817  
H11      H      0.195020000000     0.101880000000     0.509330000000     0.0359056  
H12      H      0.150780000000     0.967900000000     0.619390000000     0.0282544  
H13      H      0.164620000000     0.070870000000     0.642720000000     0.0494993  
H14      H      0.228030000000     0.985400000000     0.542870000000     0.0515772  
H15      H      0.179600000000     0.941600000000     0.642150000000     0.0363395  
H16      H      0.235090000000     0.078690000000     0.629130000000     0.028349   
H17      H      0.104250000000     0.030580000000     0.997050000000     0.0432817  
H18      H      0.116920000000     0.115290000000     0.104490000000     0.0279338  
H19      H      0.156720000000     0.979890000000     0.113730000000     0.0293314  
H20      H      0.126940000000     0.021100000000     0.146730000000     0.0427493  
H21      H      0.136760000000     0.069970000000     0.142470000000     0.0427274  
H22      H      0.148560000000     0.052260000000     0.990700000000     0.0435889  
H23      H      0.113670000000     0.973350000000     0.987160000000     0.0345776  
H24      H      0.154180000000     0.125700000000     0.127690000000     0.0362237  
H25      H      0.091320000000     0.007760000000     0.121820000000     0.0481439  
H26      H      0.179200000000     0.067630000000     0.024850000000     0.0527675  
H27      H      0.122040000000     0.961660000000     0.134570000000     0.036019   
H28      H      0.116600000000     0.100700000000     0.008600000000     0.0272878  
H29      H      0.081940000000     0.008010000000     0.036660000000     0.0509941  
H30      H      0.174500000000     0.073150000000     0.116100000000     0.0498188  
H31      H      0.152260000000     0.108610000000     0.978010000000     0.0364852  
H32      H      0.148780000000     0.992170000000     0.006350000000     0.0298313  
H33      H      0.044690000000     0.156040000000     0.491990000000     0.0422845  
H34      H      0.101540000000     0.238500000000     0.617370000000     0.0249605  
H35      H      0.007960000000     0.117170000000     0.610040000000     0.0254409  
H36      H      0.037110000000     0.158300000000     0.641380000000     0.0422854  
H37      H      0.070420000000     0.197370000000     0.644120000000     0.0421849  
H38      H      0.075320000000     0.197720000000     0.494210000000     0.0422896  
H39      H      0.990140000000     0.137620000000     0.485510000000     0.0354485  
H40      H      0.126900000000     0.212630000000     0.649210000000     0.0352794  
H41      H      0.011810000000     0.188780000000     0.619530000000     0.0509437  
H42      H      0.102250000000     0.168170000000     0.514670000000     0.05162    
H43      H      0.980420000000     0.143610000000     0.636120000000     0.0355426  
H44      H      0.102050000000     0.239620000000     0.530230000000     0.0249422  
H45      H      0.016520000000     0.186100000000     0.505950000000     0.0516568  
H46      H      0.097520000000     0.166940000000     0.627830000000     0.0507438  
H47      H      0.129730000000     0.216680000000     0.497770000000     0.0352471  
H48      H      0.014660000000     0.114920000000     0.523690000000     0.025324   
H49      H      0.993990000000     0.241960000000     0.946880000000     0.0421535  
H50      H      0.079920000000     0.278520000000     0.056760000000     0.0255216  
H51      H      0.978810000000     0.179830000000     0.064950000000     0.0275174  
H52      H      0.996060000000     0.228280000000     0.101540000000     0.0425922  
H53      H      0.039840000000     0.251780000000     0.096050000000     0.042533   
H54      H      0.039490000000     0.227250000000     0.946380000000     0.0430081  
H55      H      0.949710000000     0.205800000000     0.943030000000     0.0363206  
H56      H      0.097630000000     0.250180000000     0.095160000000     0.0356849  
H57      H      0.966550000000     0.251070000000     0.073370000000     0.0504136  
H58      H      0.056780000000     0.198840000000     0.983880000000     0.0533964  
H59      H      0.947180000000     0.198440000000     0.095130000000     0.0366064  
H60      H      0.077090000000     0.267380000000     0.968540000000     0.02495    
H61      H      0.964360000000     0.255520000000     0.983970000000     0.0512501  
H62      H      0.055390000000     0.213050000000     0.084110000000     0.0509631  
H63      H      0.095540000000     0.232760000000     0.945420000000     0.0352447  
H64      H      0.981260000000     0.185710000000     0.971500000000     0.0272779  
H65      H      0.026940000000     0.862500000000     0.444210000000     0.0423063  
H66      H      0.956390000000     0.776450000000     0.542800000000     0.0258128  
H67      H      0.051290000000     0.893860000000     0.570700000000     0.0256374  
H68      H      0.020320000000     0.851040000000     0.593310000000     0.0423085  
H69      H      0.986370000000     0.813420000000     0.583310000000     0.0422826  
H70      H      0.992340000000     0.825700000000     0.434530000000     0.0422423  
H71      H      0.083470000000     0.875590000000     0.451560000000     0.0355101  
H72      H      0.929960000000     0.800180000000     0.576420000000     0.0355533  
H73      H      0.047180000000     0.821810000000     0.571700000000     0.0512157  
H74      H      0.966070000000     0.855360000000     0.456460000000     0.0515381  
H75      H      0.075410000000     0.866650000000     0.602190000000     0.0356764  
H76      H      0.960540000000     0.783470000000     0.455900000000     0.0250973  
H77      H      0.051450000000     0.829780000000     0.460100000000     0.0502849  
H78      H      0.961760000000     0.846300000000     0.568360000000     0.0506386  
H79      H      0.936570000000     0.811600000000     0.426030000000     0.0353402  
H80      H      0.056770000000     0.899910000000     0.483660000000     0.0259118  
H81      H      0.885880000000     0.006380000000     0.473880000000     0.0432857  
H82      H      0.881500000000     0.921130000000     0.577940000000     0.028247   
H83      H      0.835950000000     0.055400000000     0.587850000000     0.0279474  
H84      H      0.857750000000     0.009880000000     0.622930000000     0.0427053  
H85      H      0.851910000000     0.960950000000     0.616060000000     0.042818   
H86      H      0.844410000000     0.981010000000     0.464310000000     0.043055   
H87      H      0.885710000000     0.063980000000     0.472570000000     0.0361997  
H88      H      0.845700000000     0.904060000000     0.597190000000     0.0365891  
H89      H      0.896710000000     0.019190000000     0.605640000000     0.049644   
H90      H      0.815470000000     0.960320000000     0.495130000000     0.0514794  
H91      H      0.868850000000     0.067530000000     0.621840000000     0.0363508  
H92      H      0.882230000000     0.936760000000     0.480070000000     0.0280917  
H93      H      0.910680000000     0.021370000000     0.517740000000     0.0521517  
H94      H      0.817200000000     0.952450000000     0.583800000000     0.0497444  
H95      H      0.848120000000     0.924190000000     0.448830000000     0.0359199  
H96      H      0.847900000000     0.050380000000     0.489910000000     0.0274412  
H97      H      0.988480000000     0.862650000000     0.069150000000     0.0426084  
H98      H      0.917460000000     0.927610000000     0.931260000000     0.0255006  
H99      H      0.037160000000     0.832100000000     0.949950000000     0.0257814  
H100     H      0.002060000000     0.868140000000     0.919820000000     0.0421233  
H101     H      0.960040000000     0.897030000000     0.914350000000     0.0421046  
H102     H      0.952920000000     0.900370000000     0.062630000000     0.0425884  
H103     H      0.042850000000     0.848730000000     0.079460000000     0.0354689  
H104     H      0.900130000000     0.892820000000     0.907030000000     0.0352081  
H105     H      0.020390000000     0.901860000000     0.946100000000     0.0497647  
H106     H      0.931970000000     0.865440000000     0.044750000000     0.052666   
H107     H      0.060630000000     0.864800000000     0.932030000000     0.0356531  
H108     H      0.920380000000     0.934560000000     0.018470000000     0.0248391  
H109     H      0.013490000000     0.895700000000     0.056420000000     0.0524072  
H110     H      0.941750000000     0.860410000000     0.929950000000     0.0491044  
H111     H      0.897100000000     0.910310000000     0.056270000000     0.0347687  
H112     H      0.023410000000     0.825370000000     0.035810000000     0.0252133  
H113     H      0.843560000000     0.039350000000     0.067760000000     0.0424423  
H114     H      0.756020000000     0.987820000000     0.944490000000     0.02491    
H115     H      0.885950000000     0.069160000000     0.948050000000     0.0255054  
H116     H      0.840590000000     0.046850000000     0.917400000000     0.042509   
H117     H      0.796790000000     0.018770000000     0.917470000000     0.0424755  
H118     H      0.797230000000     0.014910000000     0.065290000000     0.0421553  
H119     H      0.870610000000     0.090740000000     0.072500000000     0.0353031  
H120     H      0.780300000000     0.960960000000     0.912430000000     0.0351927  
H121     H      0.815450000000     0.076890000000     0.940840000000     0.0514494  
H122     H      0.825230000000     0.985330000000     0.048260000000     0.0528775  
H123     H      0.864420000000     0.100900000000     0.922060000000     0.0354968  
H124     H      0.755300000000     0.988630000000     0.029620000000     0.0240882  
H125     H      0.818740000000     0.072150000000     0.053250000000     0.0517655  
H126     H      0.826190000000     0.989730000000     0.930070000000     0.0512296  
H127     H      0.776180000000     0.959840000000     0.063420000000     0.0341619  
H128     H      0.888160000000     0.062440000000     0.033780000000     0.0253703  
H129     H      0.102320000000     0.667040000000     0.490020000000     0.0428334  
H130     H      0.202920000000     0.741560000000     0.476880000000     0.0261704  
H131     H      0.160980000000     0.643230000000     0.379230000000     0.0251031  
H132     H      0.193270000000     0.679460000000     0.423860000000     0.0431733  
H133     H      0.172910000000     0.723540000000     0.407100000000     0.0429622  
H134     H      0.121460000000     0.705380000000     0.538220000000     0.0430221  
H135     H      0.103200000000     0.610660000000     0.467260000000     0.0354681  
H136     H      0.191010000000     0.774230000000     0.441210000000     0.0356835  
H137     H      0.192410000000     0.654990000000     0.474490000000     0.0538293  
H138     H      0.109110000000     0.736930000000     0.500250000000     0.0499871  
H139     H      0.193410000000     0.622330000000     0.403680000000     0.0343405  
H140     H      0.170030000000     0.731280000000     0.557140000000     0.0287872  
H141     H      0.133770000000     0.646030000000     0.518200000000     0.0510969  
H142     H      0.141530000000     0.748110000000     0.423060000000     0.0524353  
H143     H      0.138220000000     0.757780000000     0.568010000000     0.0349757  
H144     H      0.107220000000     0.637050000000     0.417980000000     0.0268941  
H145     H      0.240340000000     0.341720000000     0.479260000000     0.0430329  
H146     H      0.153800000000     0.402230000000     0.498690000000     0.0290053  
H147     H      0.246950000000     0.321190000000     0.620650000000     0.0272201  
H148     H      0.198080000000     0.349520000000     0.619020000000     0.0428363  
H149     H      0.164800000000     0.381350000000     0.576270000000     0.0430454  
H150     H      0.251180000000     0.389410000000     0.495140000000     0.0429848  
H151     H      0.254760000000     0.286000000000     0.498010000000     0.0348342  
H152     H      0.147260000000     0.432270000000     0.542370000000     0.0341756  
H153     H      0.180380000000     0.320980000000     0.580090000000     0.0511245  
H154     H      0.243380000000     0.417620000000     0.539520000000     0.0520978  
H155     H      0.215580000000     0.295470000000     0.637240000000     0.035931   
H156     H      0.207150000000     0.407740000000     0.447770000000     0.026204   
H157     H      0.207710000000     0.317280000000     0.490030000000     0.0529699  
H158     H      0.190880000000     0.413180000000     0.590520000000     0.0499942  
H159     H      0.231860000000     0.440220000000     0.462410000000     0.0351756  
H160     H      0.271520000000     0.314310000000     0.537430000000     0.0253183  
H161     H      0.125560000000     0.714410000000     0.044500000000     0.0434379  
H162     H      0.181160000000     0.658420000000     0.890470000000     0.0253033  
H163     H      0.194310000000     0.791040000000     0.964470000000     0.0322368  
H164     H      0.205070000000     0.739520000000     0.000860000000     0.0492768  
H165     H      0.209260000000     0.686360000000     0.951500000000     0.0424838  
H166     H      0.109500000000     0.681550000000     0.980110000000     0.0429106  
H167     H      0.125140000000     0.770260000000     0.067480000000     0.0340332  
H168     H      0.206910000000     0.631690000000     0.920060000000     0.0347975  
H169     H      0.195260000000     0.735100000000     0.939140000000     0.0435338  
H170     H      0.132410000000     0.654570000000     0.014740000000     0.0517134  
H171     H      0.158160000000     0.777460000000     0.940910000000     0.0323486  
H172     H      0.123810000000     0.656480000000     0.906850000000     0.0265306  
H173     H      0.114250000000     0.739080000000     0.995440000000     0.0504752  
H174     H      0.198450000000     0.658490000000     0.995370000000     0.0535591  
H175     H      0.108540000000     0.627550000000     0.946910000000     0.0359756  
H176     H      0.163360000000     0.753650000000     0.071960000000     0.0295282  
H177     H      0.145900000000     0.381980000000     0.964250000000     0.0431009  
H178     H      0.252230000000     0.319220000000     0.019470000000     0.0249872  
H179     H      0.188920000000     0.429480000000     0.076270000000     0.0252455  
H180     H      0.232310000000     0.401270000000     0.040840000000     0.0428897  
H181     H      0.223190000000     0.355730000000     0.067680000000     0.0428116  
H182     H      0.181160000000     0.346030000000     0.928220000000     0.0430259  
H183     H      0.129590000000     0.437100000000     0.977310000000     0.0352106  
H184     H      0.234600000000     0.297890000000     0.067110000000     0.033775   
H185     H      0.227030000000     0.420620000000     0.986080000000     0.0532373  
H186     H      0.161670000000     0.324100000000     0.974140000000     0.051263   
H187     H      0.215240000000     0.457150000000     0.050120000000     0.0341317  
H188     H      0.228600000000     0.315680000000     0.937230000000     0.0270735  
H189     H      0.172420000000     0.409360000000     0.936870000000     0.0509093  
H190     H      0.189230000000     0.332060000000     0.065630000000     0.0539595  
H191     H      0.196200000000     0.289670000000     0.927420000000     0.0355835  
H192     H      0.137450000000     0.416370000000     0.031410000000     0.0274447  
H193     H      0.123960000000     0.543090000000     0.692500000000     0.0425126  
H194     H      0.208790000000     0.482230000000     0.809140000000     0.0251987  
H195     H      0.201660000000     0.584330000000     0.635520000000     0.0258903  
H196     H      0.222630000000     0.550880000000     0.692120000000     0.0422813  
H197     H      0.224920000000     0.518450000000     0.752650000000     0.0421658  
H198     H      0.126870000000     0.507810000000     0.748830000000     0.0423508  
H199     H      0.122650000000     0.553820000000     0.607330000000     0.0347775  
H200     H      0.224280000000     0.514820000000     0.841780000000     0.0353539  
H201     H      0.213240000000     0.515320000000     0.660650000000     0.0497736  
H202     H      0.134600000000     0.543120000000     0.782300000000     0.0525139  
H203     H      0.222440000000     0.554930000000     0.602770000000     0.0352529  
H204     H      0.151990000000     0.474490000000     0.802760000000     0.0243385  
H205     H      0.138920000000     0.510660000000     0.658160000000     0.0522276  
H206     H      0.209160000000     0.552070000000     0.783090000000     0.0505705  
H207     H      0.125730000000     0.499160000000     0.835060000000     0.034874   
H208     H      0.144110000000     0.581830000000     0.641570000000     0.0246391  
H209     H      0.107590000000     0.546630000000     0.194360000000     0.04236    
H210     H      0.192590000000     0.476010000000     0.287540000000     0.0246815  
H211     H      0.177240000000     0.597880000000     0.150660000000     0.0244763  
H212     H      0.204880000000     0.561440000000     0.197030000000     0.0423637  
H213     H      0.210520000000     0.519620000000     0.243710000000     0.0424071  
H214     H      0.112490000000     0.507900000000     0.246370000000     0.0424246  
H215     H      0.106240000000     0.558370000000     0.106620000000     0.0350946  
H216     H      0.213920000000     0.501390000000     0.326340000000     0.0346322  
H217     H      0.198600000000     0.529170000000     0.156700000000     0.0520058  
H218     H      0.120730000000     0.540690000000     0.284620000000     0.0506005  
H219     H      0.204050000000     0.577740000000     0.112750000000     0.0346177  
H220     H      0.135950000000     0.470760000000     0.295040000000     0.0257143  
H221     H      0.123690000000     0.516680000000     0.156580000000     0.0512527  
H222     H      0.195630000000     0.548140000000     0.285150000000     0.0528439  
H223     H      0.114460000000     0.495810000000     0.334220000000     0.035435   
H224     H      0.121390000000     0.588180000000     0.145060000000     0.024619   
H225     H      0.363330000000     0.160620000000     0.490790000000     0.0430734  
H226     H      0.442110000000     0.233550000000     0.501260000000     0.0272931  
H227     H      0.340210000000     0.170870000000     0.634530000000     0.0280768  
H228     H      0.375900000000     0.213770000000     0.621950000000     0.0429286  
H229     H      0.414410000000     0.235880000000     0.575460000000     0.0427777  
H230     H      0.406950000000     0.142390000000     0.510580000000     0.0429428  
H231     H      0.308090000000     0.152860000000     0.511820000000     0.0347905  
H232     H      0.469170000000     0.238870000000     0.548900000000     0.0357217  
H233     H      0.351660000000     0.231720000000     0.577540000000     0.0501944  
H234     H      0.432650000000     0.146560000000     0.558830000000     0.0533521  
H235     H      0.319200000000     0.207450000000     0.638720000000     0.0348209  
H236     H      0.438140000000     0.178340000000     0.462170000000     0.0255179  
H237     H      0.343520000000     0.196950000000     0.496200000000     0.053491   
H238     H      0.437760000000     0.205050000000     0.601240000000     0.0504698  
H239     H      0.461930000000     0.147080000000     0.484670000000     0.0346804  
H240     H      0.333660000000     0.137850000000     0.556340000000     0.0256078  
H241     H      0.743230000000     0.147280000000     0.471480000000     0.0429983  
H242     H      0.674470000000     0.179120000000     0.624860000000     0.0255893  
H243     H      0.780670000000     0.220860000000     0.548800000000     0.0252456  
H244     H      0.746780000000     0.195950000000     0.607790000000     0.0432427  
H245     H      0.706200000000     0.216950000000     0.579570000000     0.0432171  
H246     H      0.701380000000     0.124800000000     0.509610000000     0.0428864  
H247     H      0.800790000000     0.154030000000     0.464070000000     0.0342687  
H248     H      0.650860000000     0.210740000000     0.603050000000     0.0348294  
H249     H      0.767030000000     0.159840000000     0.602580000000     0.0539769  
H250     H      0.678650000000     0.156340000000     0.484560000000     0.050707   
H251     H      0.803200000000     0.204390000000     0.595910000000     0.0339385  
H252     H      0.671450000000     0.124590000000     0.581960000000     0.0277225  
H253     H      0.764420000000     0.127870000000     0.518100000000     0.0501841  
H254     H      0.681570000000     0.212970000000     0.530040000000     0.0539758  
H255     H      0.645760000000     0.120960000000     0.532220000000     0.0354974  
H256     H      0.779520000000     0.190500000000     0.467730000000     0.0282397  
H257     H      0.360420000000     0.210400000000     0.057440000000     0.0441314  
H258     H      0.294880000000     0.176990000000     0.965630000000     0.0304465  
H259     H      0.404300000000     0.120540000000     0.061830000000     0.0291281  
H260     H      0.370730000000     0.117030000000     0.993260000000     0.0430854  
H261     H      0.321650000000     0.127050000000     0.975990000000     0.043066   
H262     H      0.332780000000     0.180690000000     0.106580000000     0.0437265  
H263     H      0.417410000000     0.210770000000     0.073710000000     0.0354816  
H264     H      0.266680000000     0.146040000000     0.971090000000     0.0341657  
H265     H      0.388830000000     0.150390000000     0.965280000000     0.0507476  
H266     H      0.305230000000     0.149710000000     0.102700000000     0.0515842  
H267     H      0.427610000000     0.119610000000     0.009180000000     0.0342462  
H268     H      0.302210000000     0.212900000000     0.050520000000     0.0261963  
H269     H      0.383010000000     0.206120000000     0.005540000000     0.0529429  
H270     H      0.299280000000     0.117280000000     0.027390000000     0.0498805  
H271     H      0.278100000000     0.199840000000     0.098000000000     0.0362114  
H272     H      0.398030000000     0.179000000000     0.103030000000     0.0257963  
H273     H      0.708340000000     0.159310000000     0.086800000000     0.043023   
H274     H      0.630300000000     0.229040000000     0.066150000000     0.0279184  
H275     H      0.739080000000     0.171490000000     0.945800000000     0.0281476  
H276     H      0.702100000000     0.213470000000     0.955450000000     0.0429144  
H277     H      0.659130000000     0.231150000000     0.993160000000     0.0428092  
H278     H      0.668560000000     0.137490000000     0.057210000000     0.0429088  
H279     H      0.764620000000     0.152440000000     0.072510000000     0.034855   
H280     H      0.603750000000     0.231970000000     0.017400000000     0.0354269  
H281     H      0.723350000000     0.231000000000     0.003600000000     0.0499994  
H282     H      0.642930000000     0.142280000000     0.009080000000     0.0527636  
H283     H      0.759560000000     0.208440000000     0.946040000000     0.0347913  
H284     H      0.636400000000     0.172590000000     0.106650000000     0.0256455  
H285     H      0.727840000000     0.195920000000     0.083730000000     0.0529354  
H286     H      0.637420000000     0.199140000000     0.967450000000     0.0501265  
H287     H      0.613580000000     0.140930000000     0.083230000000     0.0351052  
H288     H      0.741900000000     0.137120000000     0.024830000000     0.025386   
H289     H      0.505720000000     0.216880000000     0.764280000000     0.0427865  
H290     H      0.493580000000     0.134170000000     0.874340000000     0.0276769  
H291     H      0.560590000000     0.135080000000     0.712800000000     0.0288099  
H292     H      0.516430000000     0.114310000000     0.757630000000     0.0426059  
H293     H      0.536030000000     0.114970000000     0.824210000000     0.0429298  
H294     H      0.538960000000     0.218500000000     0.817840000000     0.0430099  
H295     H      0.526990000000     0.220590000000     0.683360000000     0.035196   
H296     H      0.524700000000     0.119140000000     0.909610000000     0.0365599  
H297     H      0.489680000000     0.136380000000     0.724390000000     0.0492546  
H298     H      0.563580000000     0.195450000000     0.853010000000     0.0507055  
H299     H      0.531830000000     0.120240000000     0.673070000000     0.0364561  
H300     H      0.492940000000     0.201320000000     0.866970000000     0.0285172  
H301     H      0.485800000000     0.192120000000     0.725170000000     0.0497878  
H302     H      0.563580000000     0.138430000000     0.853960000000     0.0504153  
H303     H      0.522710000000     0.220300000000     0.901070000000     0.0356743  
H304     H      0.556150000000     0.204880000000     0.722010000000     0.029307   
H305     H      0.572640000000     0.137130000000     0.317920000000     0.0423133  
H306     H      0.484010000000     0.211180000000     0.230180000000     0.0254866  
H307     H      0.605840000000     0.220100000000     0.368690000000     0.0253101  
H308     H      0.566680000000     0.235920000000     0.317740000000     0.0424791  
H309     H      0.526270000000     0.234120000000     0.269190000000     0.0425111  
H310     H      0.530460000000     0.133230000000     0.273880000000     0.0424284  
H311     H      0.589640000000     0.137500000000     0.401820000000     0.0336073  
H312     H      0.506280000000     0.231540000000     0.186270000000     0.0355477  
H313     H      0.535580000000     0.224020000000     0.356360000000     0.0503037  
H314     H      0.556750000000     0.146890000000     0.228790000000     0.051614   
H315     H      0.577330000000     0.237680000000     0.406750000000     0.0350207  
H316     H      0.485930000000     0.153040000000     0.235930000000     0.0253888  
H317     H      0.541720000000     0.145770000000     0.359070000000     0.0534045  
H318     H      0.554400000000     0.221170000000     0.226430000000     0.0511915  
H319     H      0.507810000000     0.130400000000     0.194110000000     0.0353664  
H320     H      0.610710000000     0.162910000000     0.362720000000     0.0236415  
H321     H      0.896400000000     0.315920000000     0.614420000000     0.0429204  
H322     H      0.939090000000     0.403570000000     0.547760000000     0.0281133  
H323     H      0.899240000000     0.274210000000     0.475980000000     0.0304481  
H324     H      0.943900000000     0.309120000000     0.478070000000     0.0430229  
H325     H      0.950680000000     0.360180000000     0.495570000000     0.0430093  
H326     H      0.864470000000     0.343820000000     0.573270000000     0.0434282  
H327     H      0.886790000000     0.257830000000     0.611150000000     0.0357042  
H328     H      0.936520000000     0.416390000000     0.487380000000     0.0349081  
H329     H      0.959760000000     0.290180000000     0.529310000000     0.0496259  
H330     H      0.860890000000     0.354070000000     0.512870000000     0.053023   
H331     H      0.934230000000     0.251230000000     0.478470000000     0.0338741  
H332     H      0.885310000000     0.394990000000     0.593600000000     0.02562    
H333     H      0.930870000000     0.293610000000     0.608340000000     0.0511295  
H334     H      0.915120000000     0.365290000000     0.462560000000     0.0511619  
H335     H      0.850300000000     0.400330000000     0.560450000000     0.0350328  
H336     H      0.867730000000     0.278220000000     0.564110000000     0.0262752  
H337     H      0.774320000000     0.623690000000     0.467230000000     0.0427208  
H338     H      0.866660000000     0.704260000000     0.432170000000     0.0261952  
H339     H      0.838140000000     0.594830000000     0.364740000000     0.0250904  
H340     H      0.861130000000     0.642630000000     0.393430000000     0.0432441  
H341     H      0.834070000000     0.681520000000     0.368500000000     0.0428345  
H342     H      0.785860000000     0.669330000000     0.503880000000     0.0426809  
H343     H      0.785250000000     0.566650000000     0.462990000000     0.035222   
H344     H      0.851290000000     0.735020000000     0.395790000000     0.035482   
H345     H      0.865660000000     0.627430000000     0.451400000000     0.0532496  
H346     H      0.774010000000     0.699230000000     0.463050000000     0.0499411  
H347     H      0.873120000000     0.584910000000     0.395580000000     0.0345745  
H348     H      0.836070000000     0.695050000000     0.517370000000     0.0294765  
H349     H      0.808680000000     0.613190000000     0.500440000000     0.051255   
H350     H      0.802770000000     0.706150000000     0.384660000000     0.0518153  
H351     H      0.804510000000     0.721790000000     0.528520000000     0.0345497  
H352     H      0.785350000000     0.585630000000     0.406220000000     0.0267438  
H353     H      0.899480000000     0.376680000000     0.012680000000     0.0430977  
H354     H      0.857950000000     0.301250000000     0.097300000000     0.0292739  
H355     H      0.808860000000     0.415860000000     0.995630000000     0.0291323  
H356     H      0.806210000000     0.389180000000     0.071770000000     0.0425984  
H357     H      0.816950000000     0.339960000000     0.093980000000     0.0430418  
H358     H      0.872440000000     0.346790000000     0.964840000000     0.0436257  
H359     H      0.897500000000     0.432300000000     0.982980000000     0.0354154  
H360     H      0.821470000000     0.281200000000     0.089720000000     0.0332739  
H361     H      0.838220000000     0.411580000000     0.094850000000     0.0497593  
H362     H      0.835970000000     0.327450000000     0.962670000000     0.0525194  
H363     H      0.806170000000     0.444380000000     0.042330000000     0.0345264  
H364     H      0.893760000000     0.305850000000     0.016750000000     0.0249729  
H365     H      0.892980000000     0.404500000000     0.058230000000     0.0517983  
H366     H      0.801000000000     0.323880000000     0.040310000000     0.0499839  
H367     H      0.877560000000     0.288470000000     0.964780000000     0.0348849  
H368     H      0.867640000000     0.408430000000     0.957380000000     0.0257226  
H369     H      0.840870000000     0.720880000000     0.909270000000     0.043245   
H370     H      0.907120000000     0.647520000000     0.959800000000     0.0284084  
H371     H      0.831560000000     0.752910000000     0.052550000000     0.0294109  
H372     H      0.883320000000     0.730380000000     0.049130000000     0.0428889  
H373     H      0.904180000000     0.684850000000     0.023910000000     0.0429525  
H374     H      0.816290000000     0.683760000000     0.945940000000     0.0435014  
H375     H      0.815200000000     0.772890000000     0.920780000000     0.0356926  
H376     H      0.907430000000     0.626540000000     0.014970000000     0.0344588  
H377     H      0.895060000000     0.756190000000     0.002150000000     0.0497938  
H378     H      0.817800000000     0.664050000000     0.000960000000     0.0532689  
H379     H      0.859740000000     0.784080000000     0.055760000000     0.0343253  
H380     H      0.853420000000     0.646710000000     0.911150000000     0.0254703  
H381     H      0.868060000000     0.751260000000     0.920430000000     0.0523898  
H382     H      0.871780000000     0.664820000000     0.051020000000     0.0507023  
H383     H      0.821590000000     0.625700000000     0.936960000000     0.0348251  
H384     H      0.803550000000     0.745490000000     0.965380000000     0.0258717  
H385     H      0.815920000000     0.510050000000     0.702350000000     0.0430033  
H386     H      0.893460000000     0.490100000000     0.820560000000     0.0273329  
H387     H      0.884490000000     0.566140000000     0.631540000000     0.0272653  
H388     H      0.912420000000     0.543240000000     0.694370000000     0.0426742  
H389     H      0.915420000000     0.526530000000     0.766190000000     0.0426438  
H390     H      0.813650000000     0.537520000000     0.762320000000     0.0426519  
H391     H      0.812630000000     0.514350000000     0.617230000000     0.0358903  
H392     H      0.912120000000     0.520990000000     0.852870000000     0.0365908  
H393     H      0.905290000000     0.503330000000     0.675550000000     0.0499177  
H394     H      0.836710000000     0.563840000000     0.794810000000     0.0517069  
H395     H      0.910020000000     0.537140000000     0.606790000000     0.0359843  
H396     H      0.830830000000     0.492930000000     0.814120000000     0.0273417  
H397     H      0.843750000000     0.485100000000     0.676210000000     0.0529554  
H398     H      0.897880000000     0.560250000000     0.793790000000     0.0501604  
H399     H      0.812080000000     0.524100000000     0.846090000000     0.0360475  
H400     H      0.825550000000     0.551060000000     0.641540000000     0.0259957  
H401     H      0.810390000000     0.472460000000     0.258360000000     0.0421144  
H402     H      0.880970000000     0.566640000000     0.180530000000     0.0246286  
H403     H      0.889700000000     0.436490000000     0.300020000000     0.0241405  
H404     H      0.907880000000     0.479620000000     0.257080000000     0.0422809  
H405     H      0.905700000000     0.522980000000     0.214810000000     0.0423451  
H406     H      0.806480000000     0.516530000000     0.215050000000     0.0423443  
H407     H      0.811280000000     0.455620000000     0.344650000000     0.0351643  
H408     H      0.904320000000     0.548160000000     0.136120000000     0.0345306  
H409     H      0.895650000000     0.508260000000     0.300350000000     0.0532585  
H410     H      0.820870000000     0.490910000000     0.169440000000     0.0499466  
H411     H      0.910640000000     0.460770000000     0.340870000000     0.0338017  
H412     H      0.823670000000     0.562820000000     0.177850000000     0.0259987  
H413     H      0.818710000000     0.502990000000     0.300670000000     0.0507634  
H414     H      0.894340000000     0.496200000000     0.168600000000     0.0526254  
H415     H      0.804910000000     0.539540000000     0.133260000000     0.0352907  
H416     H      0.833340000000     0.432530000000     0.303380000000     0.0255096  
H417     H      0.326220000000     0.889610000000     0.511560000000     0.0429234  
H418     H      0.396860000000     0.846990000000     0.661340000000     0.0252634  
H419     H      0.287020000000     0.807020000000     0.568290000000     0.0261282  
H420     H      0.314870000000     0.828900000000     0.635630000000     0.042894   
H421     H      0.360360000000     0.815020000000     0.618060000000     0.0428323  
H422     H      0.363240000000     0.910740000000     0.561860000000     0.0427219  
H423     H      0.271990000000     0.878660000000     0.489240000000     0.0353338  
H424     H      0.417890000000     0.817330000000     0.629610000000     0.0345352  
H425     H      0.293160000000     0.864250000000     0.633350000000     0.0522851  
H426     H      0.384710000000     0.882270000000     0.527450000000     0.0511154  
H427     H      0.259840000000     0.820070000000     0.611980000000     0.0355419  
H428     H      0.396250000000     0.903380000000     0.630060000000     0.0265197  
H429     H      0.299470000000     0.902650000000     0.556450000000     0.0503932  
H430     H      0.381220000000     0.819360000000     0.564500000000     0.0530445  
H431     H      0.419350000000     0.913080000000     0.579260000000     0.0356384  
H432     H      0.295350000000     0.843630000000     0.493140000000     0.0278881  
H433     H      0.684710000000     0.808000000000     0.547580000000     0.0435794  
H434     H      0.621220000000     0.883750000000     0.519370000000     0.0302728  
H435     H      0.729060000000     0.822510000000     0.415570000000     0.0292775  
H436     H      0.693290000000     0.865800000000     0.420330000000     0.0429061  
H437     H      0.646990000000     0.881450000000     0.443500000000     0.0428719  
H438     H      0.648970000000     0.786680000000     0.504640000000     0.0429875  
H439     H      0.742140000000     0.801230000000     0.547470000000     0.0355223  
H440     H      0.593000000000     0.887760000000     0.473150000000     0.0346021  
H441     H      0.710170000000     0.880770000000     0.474130000000     0.0502694  
H442     H      0.622280000000     0.796440000000     0.459550000000     0.051118   
H443     H      0.750540000000     0.858450000000     0.423180000000     0.0342024  
H444     H      0.622090000000     0.822120000000     0.560550000000     0.0268518  
H445     H      0.704990000000     0.844200000000     0.551370000000     0.0524264  
H446     H      0.621420000000     0.851290000000     0.421950000000     0.0498573  
H447     H      0.594870000000     0.795470000000     0.534410000000     0.0359974  
H448     H      0.724160000000     0.785560000000     0.495620000000     0.0258281  
H449     H      0.282490000000     0.852120000000     0.140390000000     0.0429676  
H450     H      0.363040000000     0.886820000000     0.004300000000     0.0264748  
H451     H      0.254540000000     0.931020000000     0.061490000000     0.0258588  
H452     H      0.296620000000     0.909810000000     0.014400000000     0.0432114  
H453     H      0.335450000000     0.924830000000     0.055270000000     0.042964   
H454     H      0.326340000000     0.829650000000     0.114380000000     0.0430076  
H455     H      0.226080000000     0.860790000000     0.133980000000     0.0359631  
H456     H      0.390230000000     0.912010000000     0.033630000000     0.0357885  
H457     H      0.277110000000     0.873450000000     0.006310000000     0.0524594  
H458     H      0.352520000000     0.857310000000     0.141390000000     0.0501728  
H459     H      0.239030000000     0.915640000000     0.007560000000     0.0353691  
H460     H      0.356710000000     0.827020000000     0.042560000000     0.0292757  
H461     H      0.267100000000     0.836170000000     0.086080000000     0.0509893  
H462     H      0.358070000000     0.913470000000     0.104410000000     0.0518126  
H463     H      0.381060000000     0.819160000000     0.092710000000     0.0347427  
H464     H      0.247890000000     0.896780000000     0.138660000000     0.0275549  
H465     H      0.617010000000     0.794150000000     0.961480000000     0.0428291  
H466     H      0.693700000000     0.880870000000     0.029020000000     0.0262401  
H467     H      0.596880000000     0.847310000000     0.085120000000     0.0257519  
H468     H      0.634560000000     0.880220000000     0.042640000000     0.0438987  
H469     H      0.663550000000     0.845660000000     0.081220000000     0.0436908  
H470     H      0.665300000000     0.804150000000     0.939990000000     0.0428684  
H471     H      0.561200000000     0.797550000000     0.983580000000     0.0336821  
H472     H      0.719030000000     0.862020000000     0.070270000000     0.036062   
H473     H      0.610050000000     0.881860000000     0.992460000000     0.0523641  
H474     H      0.689360000000     0.788410000000     0.986070000000     0.0499067  
H475     H      0.578070000000     0.881990000000     0.063340000000     0.0351343  
H476     H      0.694440000000     0.853190000000     0.937180000000     0.0303075  
H477     H      0.599500000000     0.830490000000     0.942240000000     0.0501914  
H478     H      0.688710000000     0.813760000000     0.068110000000     0.0517689  
H479     H      0.720810000000     0.820570000000     0.932290000000     0.0336182  
H480     H      0.586590000000     0.792930000000     0.033500000000     0.0293025  
H481     H      0.529710000000     0.906820000000     0.776000000000     0.0423996  
H482     H      0.440100000000     0.831870000000     0.855540000000     0.0258005  
H483     H      0.567270000000     0.830610000000     0.730390000000     0.0241728  
H484     H      0.526660000000     0.808080000000     0.774660000000     0.0422288  
H485     H      0.482680000000     0.808150000000     0.817030000000     0.0424168  
H486     H      0.489060000000     0.908800000000     0.823700000000     0.0425213  
H487     H      0.541150000000     0.908240000000     0.687200000000     0.0353073  
H488     H      0.459710000000     0.807130000000     0.897430000000     0.0353837  
H489     H      0.497020000000     0.819510000000     0.732940000000     0.0532674  
H490     H      0.515180000000     0.892600000000     0.866920000000     0.0521097  
H491     H      0.544330000000     0.807360000000     0.690660000000     0.0342651  
H492     H      0.444240000000     0.889710000000     0.860780000000     0.0250708  
H493     H      0.497870000000     0.898350000000     0.736740000000     0.0509008  
H494     H      0.509940000000     0.818330000000     0.862780000000     0.0508368  
H495     H      0.467530000000     0.907890000000     0.905530000000     0.0350439  
H496     H      0.567470000000     0.887640000000     0.725360000000     0.0252068  
H497     H      0.466600000000     0.898560000000     0.334870000000     0.0422235  
H498     H      0.519820000000     0.811670000000     0.212920000000     0.0263903  
H499     H      0.435570000000     0.820230000000     0.403050000000     0.0253436  
H500     H      0.460770000000     0.799270000000     0.338180000000     0.042186   
H501     H      0.484930000000     0.795980000000     0.271250000000     0.0423173  
H502     H      0.494290000000     0.897000000000     0.271100000000     0.0423863  
H503     H      0.468300000000     0.900560000000     0.421960000000     0.0349963  
H504     H      0.486500000000     0.796030000000     0.183090000000     0.0357398  
H505     H      0.499250000000     0.808420000000     0.359110000000     0.0502518  
H506     H      0.459100000000     0.885590000000     0.241200000000     0.0515323  
H507     H      0.468150000000     0.799340000000     0.426950000000     0.0354262  
H508     H      0.527140000000     0.871170000000     0.217000000000     0.0255807  
H509     H      0.503070000000     0.885160000000     0.359230000000     0.0516264  
H510     H      0.451620000000     0.813560000000     0.243480000000     0.0499652  
H511     H      0.500860000000     0.896360000000     0.185700000000     0.0356562  
H512     H      0.436730000000     0.878680000000     0.397020000000     0.0244646  
N1       N      0.179470000000     0.948190000000     0.566620000000    -0.179082   
N2       N      0.206880000000     0.105600000000     0.583270000000    -0.178938   
N3       N      0.151160000000     0.121440000000     0.051980000000    -0.178949   
N4       N      0.126840000000     0.964570000000     0.059170000000    -0.178757   
N5       N      0.131600000000     0.212430000000     0.573530000000    -0.179763   
N6       N      0.982040000000     0.142960000000     0.560160000000    -0.179728   
N7       N      0.099480000000     0.239880000000     0.020630000000    -0.180579   
N8       N      0.945730000000     0.200040000000     0.018800000000    -0.179766   
N9       N      0.930070000000     0.807850000000     0.501290000000    -0.179743   
N10      N      0.082660000000     0.869270000000     0.526950000000    -0.179673   
N11      N      0.850920000000     0.910190000000     0.521990000000    -0.17867    
N12      N      0.874000000000     0.069970000000     0.546210000000    -0.178841   
N13      N      0.895810000000     0.898950000000     0.982060000000    -0.180048   
N14      N      0.054800000000     0.858410000000     0.006880000000    -0.179687   
N15      N      0.781770000000     0.957160000000     0.988080000000    -0.180865   
N16      N      0.865210000000     0.099390000000     0.998010000000    -0.180485   
N17      N      0.166580000000     0.768240000000     0.507330000000    -0.179569   
N18      N      0.148920000000     0.613580000000     0.436180000000    -0.18006    
N19      N      0.187820000000     0.438200000000     0.498860000000    -0.17969    
N20      N      0.235310000000     0.287770000000     0.568100000000    -0.179765   
N21      N      0.158150000000     0.626410000000     0.935660000000    -0.180135   
N22      N      0.157810000000     0.785070000000     0.014640000000    -0.180214   
N23      N      0.214330000000     0.290960000000     0.998390000000    -0.18031    
N24      N      0.171860000000     0.449930000000     0.013510000000    -0.180289   
N25      N      0.174490000000     0.509700000000     0.842670000000    -0.179999   
N26      N      0.172560000000     0.551900000000     0.600720000000    -0.180066   
N27      N      0.164160000000     0.501350000000     0.334980000000    -0.180188   
N28      N      0.155840000000     0.565060000000     0.105080000000    -0.180419   
N29      N      0.468530000000     0.192760000000     0.516590000000    -0.179719   
N30      N      0.310900000000     0.179910000000     0.576240000000    -0.179703   
N31      N      0.645450000000     0.165880000000     0.568050000000    -0.180007   
N32      N      0.804680000000     0.179380000000     0.529580000000    -0.180219   
N33      N      0.270440000000     0.177310000000     0.030480000000    -0.17955    
N34      N      0.425290000000     0.164240000000     0.045090000000    -0.180021   
N35      N      0.605810000000     0.186810000000     0.052320000000    -0.179661   
N36      N      0.764970000000     0.179620000000     0.007990000000    -0.179843   
N37      N      0.518940000000     0.169820000000     0.909680000000    -0.179659   
N38      N      0.536610000000     0.170900000000     0.675660000000    -0.179532   
N39      N      0.508980000000     0.180830000000     0.185080000000    -0.180464   
N40      N      0.580380000000     0.187150000000     0.408660000000    -0.180905   
N41      N      0.893070000000     0.411540000000     0.524420000000    -0.179549   
N42      N      0.906640000000     0.251690000000     0.541680000000    -0.179184   
N43      N      0.830970000000     0.730450000000     0.465210000000    -0.179596   
N44      N      0.830150000000     0.573100000000     0.430530000000    -0.180099   
N45      N      0.851540000000     0.281820000000     0.029290000000    -0.180176   
N46      N      0.850750000000     0.440750000000     0.007990000000    -0.179715   
N47      N      0.865270000000     0.623240000000     0.974330000000    -0.179851   
N48      N      0.834320000000     0.780550000000     0.990540000000    -0.179624   
N49      N      0.861880000000     0.520680000000     0.854560000000    -0.178784   
N50      N      0.861220000000     0.525590000000     0.606990000000    -0.179234   
N51      N      0.854810000000     0.542040000000     0.129500000000    -0.179794   
N52      N      0.860890000000     0.461270000000     0.347450000000    -0.18008    
N53      N      0.421550000000     0.864710000000     0.602720000000    -0.179947   
N54      N      0.263110000000     0.848500000000     0.549000000000    -0.179579   
N55      N      0.592200000000     0.843840000000     0.511020000000    -0.178914   
N56      N      0.749380000000     0.827430000000     0.483080000000    -0.179261   
N57      N      0.388030000000     0.863940000000     0.058620000000    -0.179581   
N58      N      0.229540000000     0.888670000000     0.070480000000    -0.179597   
N59      N      0.721960000000     0.845730000000     0.998090000000    -0.179573   
N60      N      0.567000000000     0.838500000000     0.027480000000    -0.179974   
N61      N      0.465680000000     0.857150000000     0.906610000000    -0.180185   
N62      N      0.539280000000     0.857650000000     0.684390000000    -0.180357   
N63      N      0.492500000000     0.846360000000     0.179690000000    -0.179541   
N64      N      0.471050000000     0.849980000000     0.428210000000    -0.179852   
Ni1      Ni     0.481530000000     0.879180000000     0.045030000000     1.00129    
Ni2      Ni     0.473710000000     0.823750000000     0.041790000000     0.993381   
Ni3      Ni     0.508910000000     0.881680000000     0.551810000000     0.998842   
Ni4      Ni     0.504110000000     0.826030000000     0.559240000000     0.99455    
Ni5      Ni     0.885640000000     0.530070000000     0.993990000000     0.997127   
Ni6      Ni     0.830570000000     0.534040000000     0.990030000000     0.993521   
Ni7      Ni     0.887580000000     0.501200000000     0.472190000000     0.993321   
Ni8      Ni     0.835570000000     0.483550000000     0.483120000000     0.997282   
Ni9      Ni     0.518710000000     0.147700000000     0.050170000000     0.997763   
Ni10     Ni     0.512260000000     0.203240000000     0.044890000000     1.00035    
Ni11     Ni     0.553880000000     0.151690000000     0.536220000000     0.999549   
Ni12     Ni     0.560390000000     0.206930000000     0.546960000000     0.999306   
Ni13     Ni     0.137800000000     0.535080000000     0.970410000000     1.00147    
Ni14     Ni     0.192620000000     0.540850000000     0.976850000000     0.992861   
Ni15     Ni     0.141520000000     0.520680000000     0.472760000000     0.998866   
Ni16     Ni     0.195490000000     0.531310000000     0.463420000000     0.995427   
Ni17     Ni     0.808100000000     0.868470000000     0.947320000000     0.991677   
Ni18     Ni     0.811170000000     0.870230000000     0.031150000000     1.00629    
Ni19     Ni     0.842400000000     0.825950000000     0.452370000000     0.996407   
Ni20     Ni     0.837430000000     0.814740000000     0.534290000000     0.995072   
Ni21     Ni     0.854410000000     0.187160000000     0.055160000000     0.996698   
Ni22     Ni     0.856110000000     0.193790000000     0.971900000000     1.00013    
Ni23     Ni     0.896140000000     0.159260000000     0.503000000000     0.996091   
Ni24     Ni     0.890060000000     0.161640000000     0.586390000000     0.996001   
Ni25     Ni     0.185120000000     0.211500000000     0.067240000000     0.993277   
Ni26     Ni     0.183030000000     0.200440000000     0.984980000000     1.00458    
Ni27     Ni     0.221350000000     0.198400000000     0.617300000000     0.991617   
Ni28     Ni     0.221470000000     0.194990000000     0.533620000000     0.997669   
Ni29     Ni     0.136730000000     0.869100000000     0.078080000000     0.997479   
Ni30     Ni     0.147590000000     0.880120000000     0.997550000000     0.993026   
Ni31     Ni     0.175810000000     0.863950000000     0.496890000000     1.00237    
Ni32     Ni     0.169870000000     0.852170000000     0.578390000000     0.989624   
O1       O      0.485800000000     0.874960000000     0.111860000000    -0.454132   
O2       O      0.476830000000     0.879860000000     0.977940000000    -0.454112   
O3       O      0.437410000000     0.883550000000     0.051130000000    -0.45265    
O4       O      0.525140000000     0.870970000000     0.038730000000    -0.452579   
O5       O      0.517310000000     0.819470000000     0.030160000000    -0.452491   
O6       O      0.430550000000     0.831650000000     0.053460000000    -0.451967   
O7       O      0.467010000000     0.828470000000     0.975250000000    -0.451188   
O8       O      0.481240000000     0.822850000000     0.108600000000    -0.449935   
O9       O      0.492500000000     0.877740000000     0.489420000000    -0.453497   
O10      O      0.524760000000     0.881890000000     0.615280000000    -0.450744   
O11      O      0.550020000000     0.874840000000     0.527920000000    -0.452113   
O12      O      0.467440000000     0.884950000000     0.575430000000    -0.454345   
O13      O      0.462900000000     0.833030000000     0.583220000000    -0.450268   
O14      O      0.545820000000     0.822890000000     0.535880000000    -0.45084    
O15      O      0.520320000000     0.829860000000     0.621600000000    -0.454581   
O16      O      0.488100000000     0.825750000000     0.495950000000    -0.451216   
O17      O      0.882020000000     0.534420000000     0.060970000000    -0.45282    
O18      O      0.885720000000     0.526070000000     0.926630000000    -0.451565   
O19      O      0.887270000000     0.575040000000     0.988510000000    -0.451808   
O20      O      0.880260000000     0.485350000000     0.999240000000    -0.451916   
O21      O      0.828750000000     0.489570000000     0.000490000000    -0.452797   
O22      O      0.836000000000     0.578330000000     0.979730000000    -0.451856   
O23      O      0.834150000000     0.527290000000     0.923240000000    -0.449935   
O24      O      0.830730000000     0.540230000000     0.057180000000    -0.449694   
O25      O      0.885900000000     0.484230000000     0.409800000000    -0.452397   
O26      O      0.885840000000     0.516910000000     0.535970000000    -0.448683   
O27      O      0.901150000000     0.461040000000     0.494870000000    -0.452331   
O28      O      0.870560000000     0.540040000000     0.448950000000    -0.450926   
O29      O      0.822070000000     0.523870000000     0.461130000000    -0.453386   
O30      O      0.852620000000     0.444460000000     0.505510000000    -0.450317   
O31      O      0.837430000000     0.499920000000     0.545780000000    -0.453712   
O32      O      0.836900000000     0.468700000000     0.419010000000    -0.450274   
O33      O      0.514880000000     0.152170000000     0.117130000000    -0.453801   
O34      O      0.521670000000     0.146900000000     0.982850000000    -0.453379   
O35      O      0.562570000000     0.155220000000     0.055060000000    -0.451582   
O36      O      0.474520000000     0.143890000000     0.044860000000    -0.452595   
O37      O      0.468340000000     0.195930000000     0.045320000000    -0.452932   
O38      O      0.556600000000     0.206830000000     0.045050000000    -0.452961   
O39      O      0.513280000000     0.198460000000     0.977760000000    -0.453886   
O40      O      0.511620000000     0.204340000000     0.112370000000    -0.453619   
O41      O      0.564420000000     0.157650000000     0.471530000000    -0.455928   
O42      O      0.544310000000     0.149240000000     0.602270000000    -0.452498   
O43      O      0.510980000000     0.160190000000     0.522310000000    -0.451309   
O44      O      0.597120000000     0.146930000000     0.549920000000    -0.453591   
O45      O      0.603180000000     0.198440000000     0.561070000000    -0.452327   
O46      O      0.517130000000     0.211690000000     0.533300000000    -0.453354   
O47      O      0.550070000000     0.200900000000     0.611760000000    -0.455275   
O48      O      0.570160000000     0.209360000000     0.480880000000    -0.451838   
O49      O      0.135060000000     0.547190000000     0.035470000000    -0.45264    
O50      O      0.144170000000     0.523200000000     0.906000000000    -0.453428   
O51      O      0.143070000000     0.491990000000     0.988340000000    -0.454264   
O52      O      0.136170000000     0.578580000000     0.952780000000    -0.453798   
O53      O      0.187610000000     0.583210000000     0.954680000000    -0.451585   
O54      O      0.193920000000     0.498130000000     0.998980000000    -0.451058   
O55      O      0.195530000000     0.526430000000     0.912810000000    -0.450993   
O56      O      0.186050000000     0.554900000000     0.040250000000    -0.45285    
O57      O      0.145540000000     0.533220000000     0.537110000000    -0.454336   
O58      O      0.140970000000     0.509110000000     0.407130000000    -0.45084    
O59      O      0.152850000000     0.478460000000     0.489740000000    -0.451965   
O60      O      0.133790000000     0.563660000000     0.456290000000    -0.453533   
O61      O      0.184160000000     0.573690000000     0.447140000000    -0.451354   
O62      O      0.203170000000     0.488120000000     0.479040000000    -0.452073   
O63      O      0.191360000000     0.519300000000     0.398870000000    -0.454294   
O64      O      0.196120000000     0.542520000000     0.529230000000    -0.450278   
O65      O      0.765680000000     0.855370000000     0.954170000000    -0.450401   
O66      O      0.850940000000     0.881660000000     0.946170000000    -0.448721   
O67      O      0.820520000000     0.825340000000     0.950890000000    -0.4534     
O68      O      0.795290000000     0.911730000000     0.949310000000    -0.451981   
O69      O      0.797450000000     0.912960000000     0.027670000000    -0.45561    
O70      O      0.824810000000     0.827130000000     0.029050000000    -0.451843   
O71      O      0.853120000000     0.883950000000     0.024450000000    -0.456907   
O72      O      0.768700000000     0.857170000000     0.032490000000    -0.455497   
O73      O      0.798080000000     0.830940000000     0.450670000000    -0.451321   
O74      O      0.886240000000     0.820210000000     0.459290000000    -0.453007   
O75      O      0.838200000000     0.781550000000     0.441220000000    -0.451226   
O76      O      0.846710000000     0.869460000000     0.469040000000    -0.451847   
O77      O      0.842300000000     0.859080000000     0.545590000000    -0.450555   
O78      O      0.832720000000     0.771330000000     0.517750000000    -0.452822   
O79      O      0.881800000000     0.809810000000     0.535850000000    -0.450706   
O80      O      0.793460000000     0.819760000000     0.527010000000    -0.451396   
O81      O      0.810580000000     0.180970000000     0.049390000000    -0.453416   
O82      O      0.898560000000     0.193280000000     0.055280000000    -0.452295   
O83      O      0.848350000000     0.231930000000     0.059870000000    -0.450592   
O84      O      0.860580000000     0.143110000000     0.044810000000    -0.453713   
O85      O      0.858790000000     0.148850000000     0.966890000000    -0.453081   
O86      O      0.854190000000     0.238150000000     0.982440000000    -0.454868   
O87      O      0.900310000000     0.196130000000     0.977040000000    -0.454209   
O88      O      0.811500000000     0.191290000000     0.972480000000    -0.451019   
O89      O      0.904280000000     0.203750000000     0.504460000000    -0.450618   
O90      O      0.887750000000     0.115120000000     0.506950000000    -0.452991   
O91      O      0.852280000000     0.167160000000     0.498200000000    -0.450721   
O92      O      0.939350000000     0.151190000000     0.513370000000    -0.452572   
O93      O      0.933710000000     0.152810000000     0.591280000000    -0.451241   
O94      O      0.847160000000     0.170860000000     0.576140000000    -0.453947   
O95      O      0.881280000000     0.117200000000     0.584660000000    -0.44963    
O96      O      0.898420000000     0.205820000000     0.582380000000    -0.452099   
O97      O      0.200950000000     0.252390000000     0.051250000000    -0.450845   
O98      O      0.169270000000     0.169600000000     0.077680000000    -0.448424   
O99      O      0.226690000000     0.195910000000     0.066810000000    -0.454466   
O100     O      0.143480000000     0.227070000000     0.062110000000    -0.45312    
O101     O      0.141520000000     0.216530000000     0.985370000000    -0.454638   
O102     O      0.224870000000     0.185050000000     0.990080000000    -0.451829   
O103     O      0.167790000000     0.159610000000     0.000770000000    -0.456146   
O104     O      0.198020000000     0.242260000000     0.974370000000    -0.454894   
O105     O      0.226540000000     0.242870000000     0.610670000000    -0.453145   
O106     O      0.215830000000     0.153540000000     0.618470000000    -0.450724   
O107     O      0.265730000000     0.192900000000     0.614760000000    -0.448376   
O108     O      0.177140000000     0.203990000000     0.613930000000    -0.449773   
O109     O      0.177980000000     0.204450000000     0.535530000000    -0.452939   
O110     O      0.264760000000     0.185270000000     0.537130000000    -0.453368   
O111     O      0.212200000000     0.151130000000     0.540350000000    -0.452544   
O112     O      0.230960000000     0.239280000000     0.532700000000    -0.450141   
O113     O      0.180080000000     0.874100000000     0.090400000000    -0.454208   
O114     O      0.094150000000     0.864390000000     0.060500000000    -0.454627   
O115     O      0.143410000000     0.825440000000     0.063810000000    -0.450792   
O116     O      0.130800000000     0.913690000000     0.086780000000    -0.448711   
O117     O      0.137020000000     0.922970000000     0.010160000000    -0.453499   
O118     O      0.157490000000     0.836430000000     0.990080000000    -0.452108   
O119     O      0.104650000000     0.871060000000     0.984390000000    -0.448858   
O120     O      0.189700000000     0.888580000000     0.016450000000    -0.44923    
O121     O      0.173900000000     0.819580000000     0.485140000000    -0.453684   
O122     O      0.177780000000     0.907360000000     0.513880000000    -0.455526   
O123     O      0.219760000000     0.860760000000     0.505890000000    -0.453057   
O124     O      0.131290000000     0.866770000000     0.493550000000    -0.451282   
O125     O      0.126240000000     0.858790000000     0.570660000000    -0.452269   
O126     O      0.214080000000     0.846110000000     0.580720000000    -0.45004    
O127     O      0.175100000000     0.896490000000     0.590460000000    -0.448462   
O128     O      0.164630000000     0.808860000000     0.560640000000    -0.449738   


