data_structure

_audit_creation_method RASPA-1.0
_audit_creation_date 2023-5-22
_audit_author_name 'Poobodin Mano'

_cell_length_a    27.7215
_cell_length_b    28.3157
_cell_length_c    28.8715
_cell_angle_alpha 90
_cell_angle_beta  89.997
_cell_angle_gamma 90
_cell_volume      22662.8

_symmetry_cell_setting          triclinic
_symmetry_space_group_name_Hall 'P 1'
_symmetry_space_group_name_H-M  'P 1'
_symmetry_Int_Tables_number     1

_symmetry_equiv_pos_as_xyz 'x,y,z'

loop_
_atom_site_label
_atom_site_type_symbol
_atom_site_fract_x
_atom_site_fract_y
_atom_site_fract_z
_atom_site_charge
C1       C      0.029780000000     0.045310000000     0.659830000000     0.431238   
C2       C      0.000840000000     0.989300000000     0.494240000000     0.431614   
C3       C      0.018710000000     0.102320000000     0.549050000000     0.428307   
C4       C      0.011270000000     0.931340000000     0.605450000000     0.430184   
C5       C      0.016620000000     0.508220000000     0.586360000000     0.429701   
C6       C      0.994390000000     0.533840000000     0.412770000000     0.430196   
C7       C      0.003450000000     0.610580000000     0.511990000000     0.428167   
C8       C      0.008070000000     0.432060000000     0.486250000000     0.428221   
C9       C      0.538490000000     0.032960000000     0.364440000000     0.429145   
C10      C      0.554650000000     0.986390000000     0.534420000000     0.430273   
C11      C      0.545880000000     0.096870000000     0.474540000000     0.429331   
C12      C      0.547510000000     0.923870000000     0.425010000000     0.43181    
C13      C      0.562680000000     0.519680000000     0.609550000000     0.429465   
C14      C      0.549300000000     0.532200000000     0.433710000000     0.428382   
C15      C      0.551690000000     0.435880000000     0.514190000000     0.42907    
C16      C      0.559730000000     0.615290000000     0.529030000000     0.431641   
C17      C      0.008570000000     0.034820000000     0.985530000000     0.431305   
C18      C      0.005090000000     0.022920000000     0.161710000000     0.429813   
C19      C      0.914820000000     0.022610000000     0.071780000000     0.429813   
C20      C      0.098700000000     0.036020000000     0.075770000000     0.429267   
C21      C      0.073230000000     0.527990000000     0.913990000000     0.430271   
C22      C      0.032110000000     0.520940000000     0.086120000000     0.429727   
C23      C      0.962950000000     0.524510000000     0.979210000000     0.431784   
C24      C      0.141560000000     0.523210000000     0.021440000000     0.431826   
C25      C      0.516190000000     0.047310000000     0.033560000000     0.429108   
C26      C      0.505380000000     0.032430000000     0.857720000000     0.429269   
C27      C      0.602320000000     0.038500000000     0.940590000000     0.42942    
C28      C      0.418240000000     0.040320000000     0.950470000000     0.429089   
C29      C      0.594380000000     0.490490000000     0.938110000000     0.430356   
C30      C      0.522800000000     0.502950000000     0.100660000000     0.430328   
C31      C      0.474870000000     0.497480000000     0.983250000000     0.43218    
C32      C      0.643010000000     0.497050000000     0.054950000000     0.432109   
C33      C      0.718230000000     0.454850000000     0.076050000000     0.0156533  
C34      C      0.885200000000     0.567080000000     0.970370000000     0.0155676  
C35      C      0.888710000000     0.480900000000     0.957750000000     0.0161372  
C36      C      0.848630000000     0.562230000000     0.009850000000    -0.100232   
C37      C      0.758360000000     0.458690000000     0.039790000000    -0.10008    
C38      C      0.853700000000     0.470320000000     0.997260000000    -0.10021    
C39      C      0.781690000000     0.507800000000     0.036240000000     0.0170515  
C40      C      0.824450000000     0.513500000000     0.012650000000     0.0168375  
C41      C      0.712980000000     0.541030000000     0.086390000000     0.0169849  
C42      C      0.752400000000     0.551290000000     0.050840000000    -0.100141   
C43      C      0.401500000000     0.454850000000     0.957160000000     0.0161571  
C44      C      0.218670000000     0.565220000000     0.036440000000     0.0153021  
C45      C      0.213680000000     0.478660000000     0.047250000000     0.0162182  
C46      C      0.260700000000     0.560840000000     0.002290000000    -0.100492   
C47      C      0.356270000000     0.458590000000     0.987240000000    -0.100225   
C48      C      0.254380000000     0.468980000000     0.012990000000    -0.100598   
C49      C      0.331890000000     0.507260000000     0.986470000000     0.0172693  
C50      C      0.285590000000     0.512440000000     0.002960000000     0.0171534  
C51      C      0.407260000000     0.541110000000     0.946640000000     0.0163291  
C52      C      0.362790000000     0.550980000000     0.976360000000    -0.100302   
C53      C      0.834660000000     0.060740000000     0.079130000000     0.0159838  
C54      C      0.678910000000     0.993840000000     0.931650000000     0.015575   
C55      C      0.680950000000     0.080610000000     0.941030000000     0.0149522  
C56      C      0.712350000000     0.985590000000     0.973060000000    -0.0999464  
C57      C      0.804280000000     0.070220000000     0.036080000000    -0.100477   
C58      C      0.713650000000     0.077730000000     0.983660000000    -0.0999833  
C59      C      0.779310000000     0.025990000000     0.017360000000     0.0166106  
C60      C      0.738870000000     0.029910000000     0.989750000000     0.0165267  
C61      C      0.839820000000     0.974890000000     0.063850000000     0.0146241  
C62      C      0.806150000000     0.978750000000     0.021740000000    -0.100028   
C63      C      0.341010000000     0.996190000000     0.952840000000     0.0157991  
C64      C      0.173280000000     0.084980000000     0.076240000000     0.0143348  
C65      C      0.179000000000     0.997990000000     0.082680000000     0.016007   
C66      C      0.209080000000     0.086380000000     0.035670000000    -0.100032   
C67      C      0.308080000000     0.994900000000     0.995200000000    -0.100321   
C68      C      0.213390000000     0.994070000000     0.041550000000    -0.100123   
C69      C      0.279950000000     0.040730000000     0.002950000000     0.0164733  
C70      C      0.237850000000     0.040700000000     0.028530000000     0.0163912  
C71      C      0.340120000000     0.083630000000     0.949290000000     0.0142569  
C72      C      0.305310000000     0.087140000000     0.990510000000    -0.100168   
C73      C      0.584930000000     0.515070000000     0.357450000000     0.0148772  
C74      C      0.487370000000     0.549770000000     0.165400000000     0.0140294  
C75      C      0.505770000000     0.464310000000     0.175790000000     0.0148931  
C76      C      0.516810000000     0.562690000000     0.208670000000    -0.100923   
C77      C      0.564210000000     0.491280000000     0.314120000000    -0.102648   
C78      C      0.540060000000     0.474200000000     0.216060000000    -0.101112   
C79      C      0.533260000000     0.525640000000     0.286670000000     0.0173149  
C80      C      0.526790000000     0.520280000000     0.240020000000     0.0169275  
C81      C      0.501690000000     0.552400000000     0.364380000000     0.0144341  
C82      C      0.510340000000     0.566070000000     0.313430000000    -0.102764   
C83      C      0.527440000000     0.499980000000     0.685710000000     0.0145769  
C84      C      0.634860000000     0.525670000000     0.869300000000     0.0143042  
C85      C      0.602790000000     0.443220000000     0.866550000000     0.0143342  
C86      C      0.607000000000     0.538630000000     0.825200000000    -0.101106   
C87      C      0.548510000000     0.469700000000     0.724910000000    -0.102648   
C88      C      0.570330000000     0.454810000000     0.825200000000    -0.101469   
C89      C      0.587150000000     0.497190000000     0.750560000000     0.0189596  
C90      C      0.591880000000     0.495190000000     0.797510000000     0.0171642  
C91      C      0.605290000000     0.545800000000     0.679890000000     0.0142365  
C92      C      0.626520000000     0.517810000000     0.720230000000    -0.102128   
C93      C      0.505950000000     0.095700000000     0.103790000000     0.014503   
C94      C      0.569300000000     0.018910000000     0.285990000000     0.0130469  
C95      C      0.488430000000     0.059390000000     0.298780000000     0.0139755  
C96      C      0.577380000000     0.049150000000     0.243010000000    -0.102267   
C97      C      0.482770000000     0.085160000000     0.150910000000    -0.10341    
C98      C      0.497340000000     0.090530000000     0.256020000000    -0.103284   
C99      C      0.516060000000     0.053700000000     0.178550000000     0.0195502  
C100     C      0.529660000000     0.064250000000     0.222660000000     0.0192437  
C101     C      0.551030000000     0.017830000000     0.106510000000     0.0134374  
C102     C      0.530330000000     0.008180000000     0.154630000000    -0.102728   
C103     C      0.521880000000     0.066630000000     0.780430000000     0.0136988  
C104     C      0.521260000000     0.947800000000     0.604540000000     0.0153698  
C105     C      0.600320000000     0.990310000000     0.607910000000     0.014616   
C106     C      0.501750000000     0.976440000000     0.645320000000    -0.101338   
C107     C      0.558480000000     0.046450000000     0.745740000000    -0.102008   
C108     C      0.582350000000     0.021970000000     0.647460000000    -0.102234   
C109     C      0.536720000000     0.004340000000     0.720790000000     0.0176486  
C110     C      0.542260000000     0.997600000000     0.674330000000     0.0182469  
C111     C      0.481410000000     0.987460000000     0.787760000000     0.0146107  
C112     C      0.515960000000     0.966300000000     0.752130000000    -0.101529   
C113     C      0.592710000000     0.851620000000     0.402990000000     0.0163225  
C114     C      0.518430000000     0.692040000000     0.540750000000     0.0159955  
C115     C      0.606860000000     0.689880000000     0.529960000000     0.0157142  
C116     C      0.510560000000     0.723240000000     0.498290000000    -0.100476   
C117     C      0.599770000000     0.814730000000     0.441100000000    -0.100231   
C118     C      0.604720000000     0.722490000000     0.487730000000    -0.100517   
C119     C      0.553550000000     0.788810000000     0.455680000000     0.0170973  
C120     C      0.556490000000     0.748480000000     0.482140000000     0.0171315  
C121     C      0.504080000000     0.849090000000     0.409080000000     0.0161751  
C122     C      0.504710000000     0.813290000000     0.448660000000    -0.100046   
C123     C      0.591050000000     0.169640000000     0.494260000000     0.0142514  
C124     C      0.502290000000     0.364730000000     0.499230000000     0.0130005  
C125     C      0.593250000000     0.359070000000     0.503620000000     0.0134149  
C126     C      0.497490000000     0.317920000000     0.525530000000    -0.102392   
C127     C      0.583680000000     0.219920000000     0.476580000000    -0.102266   
C128     C      0.588380000000     0.313390000000     0.531420000000    -0.102086   
C129     C      0.540870000000     0.242940000000     0.500500000000     0.0185085  
C130     C      0.542260000000     0.287980000000     0.517980000000     0.0182659  
C131     C      0.502360000000     0.163000000000     0.511870000000     0.0134045  
C132     C      0.494470000000     0.214500000000     0.497200000000    -0.102163   
C133     C      0.023470000000     0.568050000000     0.339080000000     0.0144429  
C134     C      0.002080000000     0.478000000000     0.155180000000     0.0124298  
C135     C      0.044380000000     0.557030000000     0.162790000000     0.0144905  
C136     C      0.965350000000     0.493000000000     0.192530000000    -0.102429   
C137     C      0.038320000000     0.540940000000     0.295740000000    -0.102312   
C138     C      0.007340000000     0.572600000000     0.198500000000    -0.102981   
C139     C      0.994200000000     0.523160000000     0.269990000000     0.0193659  
C140     C      0.988020000000     0.529880000000     0.223690000000     0.0191826  
C141     C      0.944830000000     0.523310000000     0.342190000000     0.0136949  
C142     C      0.958880000000     0.494880000000     0.298840000000    -0.102764   
C143     C      0.105740000000     0.491560000000     0.842010000000     0.0140202  
C144     C      0.984150000000     0.514930000000     0.665680000000     0.0153781  
C145     C      0.063600000000     0.474550000000     0.651440000000     0.0141063  
C146     C      0.006120000000     0.544380000000     0.704800000000    -0.10303    
C147     C      0.075460000000     0.477770000000     0.799620000000    -0.101235   
C148     C      0.085910000000     0.499790000000     0.693190000000    -0.101695   
C149     C      0.056900000000     0.520580000000     0.773030000000     0.0174059  
C150     C      0.047830000000     0.517860000000     0.726700000000     0.0184315  
C151     C      0.071310000000     0.573290000000     0.840860000000     0.0147559  
C152     C      0.036140000000     0.560310000000     0.802130000000    -0.101785   
C153     C      0.989420000000     0.059470000000     0.237790000000     0.0153831  
C154     C      0.032180000000     0.954670000000     0.421470000000     0.0155836  
C155     C      0.948920000000     0.988190000000     0.424440000000     0.013948   
C156     C      0.046870000000     0.988850000000     0.383140000000    -0.100878   
C157     C      0.968260000000     0.042730000000     0.284150000000    -0.10273    
C158     C      0.960670000000     0.023540000000     0.385650000000    -0.100971   
C159     C      0.003220000000     0.010280000000     0.309290000000     0.0173242  
C160     C      0.002760000000     0.005920000000     0.356380000000     0.0164768  
C161     C      0.018120000000     0.974240000000     0.230990000000     0.0150373  
C162     C      0.038300000000     0.982260000000     0.279720000000    -0.102394   
C163     C      0.987110000000     0.077050000000     0.913300000000     0.0148857  
C164     C      0.084810000000     0.053740000000     0.726640000000     0.0150675  
C165     C      0.002320000000     0.089940000000     0.728940000000     0.0136663  
C166     C      0.076720000000     0.029390000000     0.773240000000    -0.102398   
C167     C      0.021850000000     0.097900000000     0.877690000000    -0.102619   
C168     C      0.993530000000     0.069960000000     0.777480000000    -0.100653   
C169     C      0.044330000000     0.058990000000     0.848830000000     0.0188274  
C170     C      0.040340000000     0.056740000000     0.801860000000     0.0179956  
C171     C      0.032550000000     0.999650000000     0.910750000000     0.014586   
C172     C      0.069180000000     0.020730000000     0.876710000000    -0.103469   
C173     C      0.964010000000     0.860610000000     0.629220000000     0.0149162  
C174     C      0.046470000000     0.687320000000     0.513850000000     0.0147676  
C175     C      0.957020000000     0.685230000000     0.520310000000     0.0141288  
C176     C      0.051170000000     0.719660000000     0.555950000000    -0.100819   
C177     C      0.959250000000     0.818010000000     0.596560000000    -0.0997052  
C178     C      0.957660000000     0.719220000000     0.561700000000    -0.100484   
C179     C      0.006140000000     0.790660000000     0.587520000000     0.0166634  
C180     C      0.004820000000     0.746910000000     0.566460000000     0.0168422  
C181     C      0.052970000000     0.857280000000     0.627810000000     0.0164311  
C182     C      0.054300000000     0.816550000000     0.593210000000    -0.100088   
C183     C      0.052570000000     0.361190000000     0.459140000000     0.0131038  
C184     C      0.975640000000     0.176670000000     0.531810000000     0.0137856  
C185     C      0.067170000000     0.172890000000     0.528410000000     0.011709   
C186     C      0.975960000000     0.206740000000     0.488060000000    -0.101986   
C187     C      0.064900000000     0.315600000000     0.485490000000    -0.101855   
C188     C      0.066670000000     0.207470000000     0.487220000000    -0.102055   
C189     C      0.020370000000     0.285170000000     0.493100000000     0.0182896  
C190     C      0.020900000000     0.236980000000     0.488090000000     0.0182058  
C191     C      0.965760000000     0.354960000000     0.483230000000     0.0143797  
C192     C      0.977350000000     0.311820000000     0.512880000000    -0.101762   
H1       H      0.785640000000     0.431590000000     0.049160000000     0.0423294  
H2       H      0.864980000000     0.571030000000     0.937290000000     0.0248188  
H3       H      0.730280000000     0.536720000000     0.120930000000     0.0237902  
H4       H      0.776060000000     0.578460000000     0.066790000000     0.0422875  
H5       H      0.821740000000     0.590700000000     0.004200000000     0.0423929  
H6       H      0.830020000000     0.441500000000     0.984500000000     0.0425924  
H7       H      0.697310000000     0.421900000000     0.070180000000     0.034824   
H8       H      0.906810000000     0.599730000000     0.975470000000     0.0350444  
H9       H      0.735360000000     0.566670000000     0.019410000000     0.0528415  
H10      H      0.874420000000     0.456940000000     0.027500000000     0.0521158  
H11      H      0.688020000000     0.571680000000     0.088760000000     0.0341053  
H12      H      0.867440000000     0.485740000000     0.925390000000     0.0248788  
H13      H      0.743000000000     0.449510000000     0.005370000000     0.05174    
H14      H      0.867300000000     0.569050000000     0.043260000000     0.0513879  
H15      H      0.912940000000     0.450110000000     0.952390000000     0.0351095  
H16      H      0.735170000000     0.452310000000     0.110920000000     0.0243491  
H17      H      0.331340000000     0.430810000000     0.974390000000     0.0423683  
H18      H      0.233770000000     0.569070000000     0.071950000000     0.0254789  
H19      H      0.395330000000     0.536490000000     0.910100000000     0.0244426  
H20      H      0.341690000000     0.578100000000     0.957340000000     0.042469   
H21      H      0.286080000000     0.589660000000     0.011520000000     0.0424727  
H22      H      0.275690000000     0.439830000000     0.028510000000     0.0425618  
H23      H      0.421580000000     0.422190000000     0.966360000000     0.0348174  
H24      H      0.197930000000     0.597830000000     0.028520000000     0.0353344  
H25      H      0.374740000000     0.566290000000     0.009910000000     0.0518835  
H26      H      0.238660000000     0.456300000000     0.979820000000     0.0520981  
H27      H      0.431720000000     0.572200000000     0.947640000000     0.0349093  
H28      H      0.229720000000     0.482730000000     0.082370000000     0.0252692  
H29      H      0.366190000000     0.450200000000     0.023630000000     0.0517505  
H30      H      0.247070000000     0.567420000000     0.966660000000     0.0511879  
H31      H      0.189120000000     0.447660000000     0.048460000000     0.0353451  
H32      H      0.390070000000     0.451510000000     0.920350000000     0.0242786  
H33      H      0.777780000000     0.097600000000     0.046530000000     0.0423741  
H34      H      0.701610000000     0.996960000000     0.899990000000     0.0249587  
H35      H      0.817420000000     0.967180000000     0.094930000000     0.0257506  
H36      H      0.780530000000     0.948820000000     0.025030000000     0.0422284  
H37      H      0.738070000000     0.957860000000     0.961750000000     0.0422821  
H38      H      0.740300000000     0.106710000000     0.979540000000     0.0423354  
H39      H      0.855380000000     0.093090000000     0.088060000000     0.0353187  
H40      H      0.655280000000     0.962490000000     0.926920000000     0.035169   
H41      H      0.827790000000     0.973450000000     0.989740000000     0.0505636  
H42      H      0.691690000000     0.084870000000     0.015120000000     0.0507954  
H43      H      0.864680000000     0.944520000000     0.058800000000     0.0355632  
H44      H      0.704160000000     0.083410000000     0.909690000000     0.0253425  
H45      H      0.827750000000     0.085050000000     0.008450000000     0.0520642  
H46      H      0.690700000000     0.971470000000     0.002360000000     0.051131   
H47      H      0.658830000000     0.113280000000     0.943080000000     0.035352   
H48      H      0.809840000000     0.053340000000     0.108550000000     0.0250468  
H49      H      0.283630000000     0.964480000000     0.989240000000     0.0422327  
H50      H      0.193940000000     0.089290000000     0.109020000000     0.0258783  
H51      H      0.318410000000     0.082800000000     0.916870000000     0.0260029  
H52      H      0.278920000000     0.114950000000     0.980940000000     0.0420549  
H53      H      0.233370000000     0.116650000000     0.042920000000     0.0420844  
H54      H      0.240210000000     0.966930000000     0.051840000000     0.0423154  
H55      H      0.364170000000     0.964150000000     0.952810000000     0.0353628  
H56      H      0.148240000000     0.115490000000     0.073320000000     0.0355128  
H57      H      0.325710000000     0.099380000000     0.021400000000     0.0499999  
H58      H      0.193080000000     0.980890000000     0.010970000000     0.0512293  
H59      H      0.362830000000     0.115950000000     0.948220000000     0.0355951  
H60      H      0.200930000000     0.002030000000     0.114730000000     0.0249102  
H61      H      0.330150000000     0.987610000000     0.026540000000     0.0518368  
H62      H      0.188870000000     0.094000000000     0.003260000000     0.0498717  
H63      H      0.158290000000     0.964560000000     0.086060000000     0.0351672  
H64      H      0.318030000000     0.994570000000     0.921260000000     0.0251584  
H65      H      0.595180000000     0.478650000000     0.293010000000     0.0435831  
H66      H      0.449220000000     0.544660000000     0.176220000000     0.0254477  
H67      H      0.488020000000     0.583730000000     0.383580000000     0.0310956  
H68      H      0.534270000000     0.597520000000     0.311710000000     0.0492527  
H69      H      0.497730000000     0.591790000000     0.226630000000     0.042292   
H70      H      0.537550000000     0.443600000000     0.240030000000     0.0430594  
H71      H      0.607120000000     0.488770000000     0.376600000000     0.0338275  
H72      H      0.488170000000     0.579710000000     0.140520000000     0.034975   
H73      H      0.474630000000     0.575370000000     0.298520000000     0.0433514  
H74      H      0.577710000000     0.476560000000     0.202980000000     0.052158   
H75      H      0.473100000000     0.524880000000     0.366170000000     0.0321802  
H76      H      0.468920000000     0.458360000000     0.189940000000     0.0263747  
H77      H      0.542010000000     0.460350000000     0.324520000000     0.0504384  
H78      H      0.552190000000     0.577010000000     0.197250000000     0.0519816  
H79      H      0.517270000000     0.431300000000     0.158150000000     0.0360961  
H80      H      0.609210000000     0.544470000000     0.346990000000     0.0300392  
H81      H      0.518120000000     0.459730000000     0.748040000000     0.043295   
H82      H      0.671670000000     0.514170000000     0.858900000000     0.025195   
H83      H      0.589970000000     0.579180000000     0.693900000000     0.0262304  
H84      H      0.652530000000     0.540410000000     0.739050000000     0.0430522  
H85      H      0.628780000000     0.564210000000     0.805160000000     0.0428795  
H86      H      0.567250000000     0.422210000000     0.803930000000     0.0429774  
H87      H      0.501990000000     0.477940000000     0.665190000000     0.0336824  
H88      H      0.638910000000     0.557510000000     0.891480000000     0.034424   
H89      H      0.647850000000     0.487960000000     0.705870000000     0.0523733  
H90      H      0.533780000000     0.464910000000     0.837590000000     0.0517314  
H91      H      0.634800000000     0.555720000000     0.655680000000     0.0352045  
H92      H      0.637940000000     0.429810000000     0.853360000000     0.0266556  
H93      H      0.564480000000     0.436900000000     0.710340000000     0.0502107  
H94      H      0.573570000000     0.557580000000     0.835550000000     0.0529356  
H95      H      0.585700000000     0.414510000000     0.887040000000     0.0360962  
H96      H      0.506690000000     0.529700000000     0.701160000000     0.0290405  
H97      H      0.476210000000     0.119640000000     0.168130000000     0.0429636  
H98      H      0.555150000000     0.983960000000     0.274810000000     0.0269437  
H99      H      0.587730000000     0.033110000000     0.110770000000     0.0258394  
H100     H      0.555920000000     0.986230000000     0.174780000000     0.0438567  
H101     H      0.601160000000     0.030570000000     0.218070000000     0.0432593  
H102     H      0.461610000000     0.099330000000     0.240980000000     0.0429965  
H103     H      0.479610000000     0.115960000000     0.082540000000     0.0341232  
H104     H      0.604750000000     0.012510000000     0.302860000000     0.036086   
H105     H      0.497230000000     0.986400000000     0.150570000000     0.0521384  
H106     H      0.515130000000     0.123990000000     0.266670000000     0.0499802  
H107     H      0.555260000000     0.983720000000     0.087860000000     0.0353662  
H108     H      0.465000000000     0.029210000000     0.288650000000     0.0301124  
H109     H      0.447540000000     0.067120000000     0.145880000000     0.0503986  
H110     H      0.597370000000     0.081480000000     0.253480000000     0.0514508  
H111     H      0.468520000000     0.080550000000     0.325040000000     0.0337046  
H112     H      0.538180000000     0.118470000000     0.109200000000     0.029135   
H113     H      0.568120000000     0.075400000000     0.721480000000     0.0430613  
H114     H      0.537350000000     0.914740000000     0.618500000000     0.0250659  
H115     H      0.448310000000     0.999160000000     0.769240000000     0.0259082  
H116     H      0.497590000000     0.937250000000     0.733560000000     0.0428716  
H117     H      0.476480000000     0.953930000000     0.665090000000     0.0429572  
H118     H      0.613830000000     0.029650000000     0.670090000000     0.0431276  
H119     H      0.539610000000     0.095400000000     0.800370000000     0.0354613  
H120     H      0.491010000000     0.937500000000     0.581360000000     0.0338146  
H121     H      0.546490000000     0.949630000000     0.771000000000     0.0528876  
H122     H      0.568600000000     0.055810000000     0.633070000000     0.0508366  
H123     H      0.470460000000     0.959660000000     0.812830000000     0.0349595  
H124     H      0.618630000000     0.958960000000     0.623120000000     0.027206   
H125     H      0.591670000000     0.035160000000     0.764290000000     0.0506894  
H126     H      0.479910000000     0.006130000000     0.631350000000     0.0534452  
H127     H      0.627280000000     0.010240000000     0.587140000000     0.0348462  
H128     H      0.491250000000     0.082280000000     0.760820000000     0.0280301  
H129     H      0.627030000000     0.789490000000     0.427600000000     0.0426158  
H130     H      0.523650000000     0.715310000000     0.571430000000     0.0252263  
H131     H      0.503200000000     0.829420000000     0.375710000000     0.0246441  
H132     H      0.476080000000     0.787110000000     0.440530000000     0.0422879  
H133     H      0.481910000000     0.748680000000     0.508240000000     0.0424104  
H134     H      0.635230000000     0.747500000000     0.491940000000     0.0427169  
H135     H      0.624860000000     0.875020000000     0.401320000000     0.0348119  
H136     H      0.485540000000     0.670530000000     0.547050000000     0.0354013  
H137     H      0.494910000000     0.831760000000     0.481320000000     0.0516601  
H138     H      0.611170000000     0.701180000000     0.456000000000     0.0518526  
H139     H      0.470620000000     0.870630000000     0.411120000000     0.0349906  
H140     H      0.611470000000     0.712130000000     0.561430000000     0.025101   
H141     H      0.614980000000     0.832580000000     0.472130000000     0.0523465  
H142     H      0.496860000000     0.701100000000     0.469350000000     0.0517703  
H143     H      0.639080000000     0.666680000000     0.527250000000     0.0353008  
H144     H      0.590070000000     0.832900000000     0.369180000000     0.0243193  
H145     H      0.618130000000     0.239220000000     0.479360000000     0.0430614  
H146     H      0.499580000000     0.357290000000     0.461480000000     0.0275151  
H147     H      0.506930000000     0.162000000000     0.550150000000     0.0265714  
H148     H      0.465790000000     0.227870000000     0.520460000000     0.0425662  
H149     H      0.463690000000     0.301550000000     0.513060000000     0.0425895  
H150     H      0.621730000000     0.292270000000     0.528650000000     0.0427104  
H151     H      0.621150000000     0.153340000000     0.474480000000     0.0359293  
H152     H      0.471060000000     0.387410000000     0.508590000000     0.0366858  
H153     H      0.480960000000     0.215720000000     0.460970000000     0.0501228  
H154     H      0.585840000000     0.322810000000     0.568740000000     0.0512872  
H155     H      0.469140000000     0.142710000000     0.503590000000     0.0362003  
H156     H      0.598600000000     0.349960000000     0.466510000000     0.0273685  
H157     H      0.575670000000     0.218300000000     0.438870000000     0.0521559  
H158     H      0.493250000000     0.325110000000     0.563160000000     0.0500324  
H159     H      0.626010000000     0.378070000000     0.515680000000     0.0359987  
H160     H      0.602050000000     0.171220000000     0.531290000000     0.0266638  
H161     H      0.062870000000     0.562930000000     0.274500000000     0.0436635  
H162     H      0.030960000000     0.456750000000     0.171940000000     0.0292579  
H163     H      0.922710000000     0.554160000000     0.331290000000     0.0284936  
H164     H      0.925120000000     0.486980000000     0.279610000000     0.042996   
H165     H      0.954160000000     0.460780000000     0.211610000000     0.0428347  
H166     H      0.022560000000     0.600020000000     0.221710000000     0.043486   
H167     H      0.056220000000     0.577350000000     0.359340000000     0.0350865  
H168     H      0.983490000000     0.455010000000     0.129530000000     0.034131   
H169     H      0.975870000000     0.460950000000     0.309260000000     0.0506923  
H170     H      0.976840000000     0.589870000000     0.180080000000     0.0527794  
H171     H      0.922100000000     0.500590000000     0.364800000000     0.0352071  
H172     H      0.076370000000     0.542730000000     0.181350000000     0.0260511  
H173     H      0.059860000000     0.509710000000     0.306540000000     0.0532396  
H174     H      0.932870000000     0.508240000000     0.175620000000     0.0493784  
H175     H      0.056660000000     0.588470000000     0.142990000000     0.0358407  
H176     H      0.006230000000     0.601690000000     0.328050000000     0.0257426  
H177     H      0.096890000000     0.453140000000     0.778130000000     0.0427628  
H178     H      0.967480000000     0.482650000000     0.680750000000     0.0281427  
H179     H      0.104870000000     0.587700000000     0.825110000000     0.0269719  
H180     H      0.030150000000     0.592670000000     0.781100000000     0.0429845  
H181     H      0.976880000000     0.551410000000     0.730230000000     0.0435868  
H182     H      0.112660000000     0.475920000000     0.709350000000     0.0428418  
H183     H      0.111700000000     0.459930000000     0.864080000000     0.0347443  
H184     H      0.955150000000     0.535990000000     0.648900000000     0.0348619  
H185     H      0.001100000000     0.548990000000     0.817220000000     0.0515145  
H186     H      0.106490000000     0.530840000000     0.680330000000     0.0519772  
H187     H      0.054800000000     0.601600000000     0.862310000000     0.0359405  
H188     H      0.050730000000     0.439330000000     0.663180000000     0.0257134  
H189     H      0.043550000000     0.457570000000     0.811900000000     0.0523223  
H190     H      0.019200000000     0.578690000000     0.690920000000     0.050739   
H191     H      0.091950000000     0.468380000000     0.624870000000     0.0348294  
H192     H      0.141660000000     0.503490000000     0.829450000000     0.0254549  
H193     H      0.960470000000     0.074710000000     0.305220000000     0.0432193  
H194     H      0.018510000000     0.921730000000     0.405050000000     0.0251531  
H195     H      0.045710000000     0.955220000000     0.210100000000     0.033429   
H196     H      0.073160000000     0.001530000000     0.277490000000     0.0497716  
H197     H      0.074750000000     0.971590000000     0.361500000000     0.0425977  
H198     H      0.927260000000     0.028210000000     0.364920000000     0.0426663  
H199     H      0.962070000000     0.081440000000     0.219580000000     0.0327413  
H200     H      0.064300000000     0.945100000000     0.442530000000     0.034419   
H201     H      0.044730000000     0.946720000000     0.294870000000     0.043564   
H202     H      0.970400000000     0.058220000000     0.401080000000     0.0505849  
H203     H      0.985790000000     0.951060000000     0.233030000000     0.0314352  
H204     H      0.933590000000     0.955720000000     0.408480000000     0.0270879  
H205     H      0.933900000000     0.023570000000     0.277770000000     0.0499912  
H206     H      0.064410000000     0.020140000000     0.399180000000     0.0540051  
H207     H      0.920980000000     0.003700000000     0.447480000000     0.0353594  
H208     H      0.021300000000     0.082340000000     0.244430000000     0.0305438  
H209     H      0.003730000000     0.125710000000     0.857050000000     0.0428486  
H210     H      0.102480000000     0.088470000000     0.732800000000     0.027358   
H211     H      0.004050000000     0.980930000000     0.890760000000     0.0283232  
H212     H      0.083370000000     0.991370000000     0.855220000000     0.0432845  
H213     H      0.112330000000     0.027680000000     0.790880000000     0.0429605  
H214     H      0.971070000000     0.095460000000     0.796930000000     0.0430989  
H215     H      0.974500000000     0.105480000000     0.936920000000     0.0347683  
H216     H      0.109820000000     0.031690000000     0.705690000000     0.0354516  
H217     H      0.099890000000     0.036330000000     0.896180000000     0.0506642  
H218     H      0.971600000000     0.037270000000     0.774080000000     0.0526524  
H219     H      0.051420000000     0.973180000000     0.932700000000     0.0350495  
H220     H      0.016640000000     0.126420000000     0.732800000000     0.025805   
H221     H      0.051350000000     0.116160000000     0.896660000000     0.0522293  
H222     H      0.063340000000     0.992820000000     0.767570000000     0.0513743  
H223     H      0.967380000000     0.092540000000     0.710220000000     0.0354334  
H224     H      0.954970000000     0.063380000000     0.894530000000     0.0255451  
H225     H      0.931750000000     0.794610000000     0.612550000000     0.0422305  
H226     H      0.044290000000     0.709750000000     0.482260000000     0.0261942  
H227     H      0.052160000000     0.842140000000     0.663380000000     0.0243118  
H228     H      0.082670000000     0.792180000000     0.606130000000     0.0421637  
H229     H      0.081930000000     0.743280000000     0.547860000000     0.0424273  
H230     H      0.926090000000     0.742690000000     0.556720000000     0.042529   
H231     H      0.931940000000     0.883790000000     0.625110000000     0.0355407  
H232     H      0.079730000000     0.665610000000     0.510920000000     0.0358099  
H233     H      0.065530000000     0.830500000000     0.558870000000     0.0523436  
H234     H      0.951960000000     0.698710000000     0.594060000000     0.0500904  
H235     H      0.086660000000     0.878340000000     0.624740000000     0.0346667  
H236     H      0.952520000000     0.706420000000     0.488140000000     0.026955   
H237     H      0.945150000000     0.830670000000     0.562720000000     0.0510035  
H238     H      0.060830000000     0.698170000000     0.586800000000     0.0510106  
H239     H      0.925010000000     0.661800000000     0.523380000000     0.0360261  
H240     H      0.964050000000     0.847370000000     0.665510000000     0.025364   
H241     H      0.092650000000     0.297660000000     0.464210000000     0.0425511  
H242     H      0.973270000000     0.200220000000     0.562570000000     0.028214   
H243     H      0.953800000000     0.342760000000     0.448450000000     0.0267469  
H244     H      0.944100000000     0.290910000000     0.517380000000     0.0432295  
H245     H      0.941640000000     0.226130000000     0.483900000000     0.042426   
H246     H      0.100400000000     0.228190000000     0.489260000000     0.0424948  
H247     H      0.084750000000     0.384580000000     0.459440000000     0.0364243  
H248     H      0.942660000000     0.154360000000     0.531230000000     0.0359447  
H249     H      0.987190000000     0.324080000000     0.548230000000     0.0527396  
H250     H      0.067850000000     0.187070000000     0.454340000000     0.0488746  
H251     H      0.935230000000     0.374320000000     0.499420000000     0.0359929  
H252     H      0.075030000000     0.193320000000     0.560440000000     0.0281902  
H253     H      0.080960000000     0.324560000000     0.519640000000     0.0504263  
H254     H      0.977430000000     0.182720000000     0.457600000000     0.0505221  
H255     H      0.097460000000     0.147670000000     0.523430000000     0.0362081  
H256     H      0.045350000000     0.351810000000     0.422360000000     0.0265849  
N1       N      0.915050000000     0.524500000000     0.968070000000    -0.180643   
N2       N      0.688180000000     0.497240000000     0.073850000000    -0.180824   
N3       N      0.188910000000     0.522510000000     0.034560000000    -0.180479   
N4       N      0.430550000000     0.497640000000     0.962560000000    -0.180784   
N5       N      0.651590000000     0.037740000000     0.937780000000    -0.179894   
N6       N      0.865550000000     0.019460000000     0.071320000000    -0.17975    
N7       N      0.147930000000     0.039540000000     0.077410000000    -0.179647   
N8       N      0.368860000000     0.040210000000     0.952080000000    -0.17941    
N9       N      0.505140000000     0.505510000000     0.144850000000    -0.17971    
N10      N      0.545810000000     0.534050000000     0.386560000000    -0.180097   
N11      N      0.610980000000     0.486480000000     0.893690000000    -0.179909   
N12      N      0.566370000000     0.519310000000     0.656680000000    -0.179639   
N13      N      0.534010000000     0.040690000000     0.317940000000    -0.17927    
N14      N      0.521100000000     0.051770000000     0.080420000000    -0.179557   
N15      N      0.558940000000     0.974560000000     0.580070000000    -0.180177   
N16      N      0.503460000000     0.028710000000     0.810580000000    -0.179672   
N17      N      0.561740000000     0.663250000000     0.533870000000    -0.180505   
N18      N      0.547950000000     0.877700000000     0.411300000000    -0.180652   
N19      N      0.549140000000     0.387950000000     0.508270000000    -0.17925    
N20      N      0.545860000000     0.142460000000     0.490390000000    -0.17953    
N21      N      0.024280000000     0.519590000000     0.132800000000    -0.17964    
N22      N      0.988330000000     0.540530000000     0.366300000000    -0.179594   
N23      N      0.022120000000     0.500980000000     0.632810000000    -0.179938   
N24      N      0.083050000000     0.530640000000     0.867660000000    -0.179759   
N25      N      0.993480000000     0.975950000000     0.449360000000    -0.180131   
N26      N      0.004400000000     0.019180000000     0.208830000000    -0.180763   
N27      N      0.038100000000     0.061400000000     0.703690000000    -0.180107   
N28      N      0.010040000000     0.037560000000     0.938380000000    -0.180548   
N29      N      0.002440000000     0.658670000000     0.517150000000    -0.179253   
N30      N      0.009410000000     0.885530000000     0.620420000000    -0.179917   
N31      N      0.020420000000     0.148400000000     0.534700000000    -0.179278   
N32      N      0.009210000000     0.384420000000     0.478120000000    -0.179404   
Ni1      Ni     0.057460000000     0.012880000000     0.571770000000     1.00001    
Ni2      Ni     0.972710000000     0.020770000000     0.582650000000     0.995249   
Ni3      Ni     0.048190000000     0.522940000000     0.494780000000     0.993321   
Ni4      Ni     0.963130000000     0.519500000000     0.504360000000     0.99529    
Ni5      Ni     0.503880000000     0.008940000000     0.452990000000     0.994076   
Ni6      Ni     0.589320000000     0.011780000000     0.446200000000     0.998473   
Ni7      Ni     0.513120000000     0.527160000000     0.524700000000     0.996127   
Ni8      Ni     0.598600000000     0.524130000000     0.518590000000     0.996119   
Ni9      Ni     0.010300000000     0.987340000000     0.070970000000     1.00146    
Ni10     Ni     0.003210000000     0.070960000000     0.076260000000     0.992658   
Ni11     Ni     0.052390000000     0.482130000000     0.998400000000     0.990763   
Ni12     Ni     0.052320000000     0.566030000000     0.001600000000     1.00388    
Ni13     Ni     0.510160000000     0.997810000000     0.948960000000     0.994767   
Ni14     Ni     0.510490000000     0.081500000000     0.942440000000     0.993543   
Ni15     Ni     0.557500000000     0.455210000000     0.021880000000     1.00565    
Ni16     Ni     0.560100000000     0.539030000000     0.016940000000     0.989249   
O1       O      0.065540000000     0.033650000000     0.634180000000    -0.455465   
O2       O      0.043920000000     0.991890000000     0.510150000000    -0.454558   
O3       O      0.057450000000     0.077520000000     0.551080000000    -0.450548   
O4       O      0.051820000000     0.949280000000     0.593420000000    -0.452912   
O5       O      0.972600000000     0.956190000000     0.603380000000    -0.449956   
O6       O      0.978240000000     0.084220000000     0.561040000000    -0.453752   
O7       O      0.964760000000     0.000080000000     0.519940000000    -0.452194   
O8       O      0.986500000000     0.042230000000     0.644390000000    -0.450639   
O9       O      0.053710000000     0.509610000000     0.559840000000    -0.449667   
O10      O      0.036780000000     0.535830000000     0.430480000000    -0.451034   
O11      O      0.043980000000     0.589240000000     0.507420000000    -0.4517     
O12      O      0.046780000000     0.456520000000     0.482390000000    -0.45176    
O13      O      0.968210000000     0.452290000000     0.497140000000    -0.450342   
O14      O      0.963920000000     0.587010000000     0.510870000000    -0.449541   
O15      O      0.957640000000     0.525670000000     0.438480000000    -0.451996   
O16      O      0.974200000000     0.513490000000     0.569500000000    -0.452597   
O17      O      0.500630000000     0.029930000000     0.389820000000    -0.450399   
O18      O      0.512840000000     0.987780000000     0.515500000000    -0.451244   
O19      O      0.506420000000     0.073240000000     0.473500000000    -0.452407   
O20      O      0.507200000000     0.944790000000     0.432280000000    -0.452799   
O21      O      0.587400000000     0.946050000000     0.430680000000    -0.452863   
O22      O      0.585580000000     0.077390000000     0.462080000000    -0.452404   
O23      O      0.592430000000     0.996710000000     0.510860000000    -0.452098   
O24      O      0.580390000000     0.026280000000     0.382030000000    -0.452682   
O25      O      0.520960000000     0.518640000000     0.590320000000    -0.449897   
O26      O      0.511150000000     0.535450000000     0.458680000000    -0.449781   
O27      O      0.512770000000     0.460180000000     0.516600000000    -0.453872   
O28      O      0.519070000000     0.594000000000     0.532260000000    -0.45404    
O29      O      0.598460000000     0.591750000000     0.521450000000    -0.452002   
O30      O      0.592850000000     0.456550000000     0.516230000000    -0.450636   
O31      O      0.590660000000     0.526280000000     0.452730000000    -0.452082   
O32      O      0.600940000000     0.522600000000     0.584820000000    -0.45224    
O33      O      0.013060000000     0.994550000000     0.005270000000    -0.455359   
O34      O      0.008120000000     0.985440000000     0.137020000000    -0.455155   
O35      O      0.940850000000     0.985230000000     0.068480000000    -0.44935    
O36      O      0.078810000000     0.995190000000     0.073890000000    -0.452404   
O37      O      0.072550000000     0.073420000000     0.076430000000    -0.450268   
O38      O      0.934830000000     0.063170000000     0.075760000000    -0.453404   
O39      O      0.002830000000     0.063700000000     0.142410000000    -0.450203   
O40      O      0.003020000000     0.072380000000     0.009790000000    -0.45117    
O41      O      0.071510000000     0.487770000000     0.934460000000    -0.44802    
O42      O      0.033330000000     0.482520000000     0.062540000000    -0.448401   
O43      O      0.986140000000     0.485400000000     0.980480000000    -0.453834   
O44      O      0.118570000000     0.484250000000     0.016770000000    -0.454036   
O45      O      0.120130000000     0.562720000000     0.014420000000    -0.452616   
O46      O      0.984460000000     0.563470000000     0.988650000000    -0.452249   
O47      O      0.039900000000     0.560720000000     0.066390000000    -0.45591    
O48      O      0.065000000000     0.566010000000     0.936670000000    -0.4561     
O49      O      0.517730000000     0.006320000000     0.014630000000    -0.449879   
O50      O      0.502950000000     0.995200000000     0.882910000000    -0.450328   
O51      O      0.578820000000     0.999560000000     0.942150000000    -0.452218   
O52      O      0.441440000000     0.001410000000     0.954940000000    -0.452276   
O53      O      0.441210000000     0.079110000000     0.943950000000    -0.449338   
O54      O      0.579740000000     0.078060000000     0.941680000000    -0.449951   
O55      O      0.509940000000     0.073190000000     0.876570000000    -0.451929   
O56      O      0.511180000000     0.084390000000     0.008590000000    -0.452786   
O57      O      0.582300000000     0.453190000000     0.960320000000    -0.456529   
O58      O      0.532600000000     0.462510000000     0.083140000000    -0.455935   
O59      O      0.493530000000     0.458430000000     0.996890000000    -0.453389   
O60      O      0.621870000000     0.457750000000     0.046190000000    -0.453002   
O61      O      0.622180000000     0.536300000000     0.045590000000    -0.453716   
O62      O      0.497790000000     0.536390000000     0.988630000000    -0.453516   
O63      O      0.530430000000     0.540750000000     0.077220000000    -0.448177   
O64      O      0.589650000000     0.531310000000     0.956960000000    -0.447965   


