data_structure

_audit_creation_method RASPA-1.0
_audit_creation_date 2023-5-22
_audit_author_name 'Poobodin Mano'

_cell_length_a    38.3158
_cell_length_b    42.1826
_cell_length_c    28.0288
_cell_angle_alpha 90
_cell_angle_beta  90
_cell_angle_gamma 90
_cell_volume      45301.8

_symmetry_cell_setting          triclinic
_symmetry_space_group_name_Hall 'P 1'
_symmetry_space_group_name_H-M  'P 1'
_symmetry_Int_Tables_number     1

_symmetry_equiv_pos_as_xyz 'x,y,z'

loop_
_atom_site_label
_atom_site_type_symbol
_atom_site_fract_x
_atom_site_fract_y
_atom_site_fract_z
_atom_site_charge
C1       C      0.405980000000     0.999660000000     0.117020000000     0.433862   
C2       C      0.534140000000     0.012020000000     0.071340000000     0.427584   
C3       C      0.454720000000     0.007870000000     0.007530000000     0.425926   
C4       C      0.488280000000     0.003940000000     0.183780000000     0.426778   
C5       C      0.334640000000     0.005330000000     0.574420000000     0.428485   
C6       C      0.465670000000     0.003000000000     0.605480000000     0.429474   
C7       C      0.412820000000     0.002730000000     0.501310000000     0.426764   
C8       C      0.386740000000     0.005570000000     0.679930000000     0.427716   
C9       C      0.090590000000     0.685710000000     0.016850000000     0.428004   
C10      C      0.095980000000     0.740250000000     0.179420000000     0.431535   
C11      C      0.091430000000     0.658890000000     0.140850000000     0.431377   
C12      C      0.095170000000     0.766410000000     0.057380000000     0.430409   
C13      C      0.089130000000     0.690150000000     0.503000000000     0.430403   
C14      C      0.088000000000     0.676660000000     0.684190000000     0.428508   
C15      C      0.088690000000     0.623710000000     0.583080000000     0.430495   
C16      C      0.088160000000     0.744110000000     0.603170000000     0.42987    
C17      C      0.755080000000     0.022960000000     0.763240000000     0.424491   
C18      C      0.718450000000     0.031680000000     0.937960000000     0.427977   
C19      C      0.801480000000     0.037080000000     0.875200000000     0.429466   
C20      C      0.674180000000     0.018470000000     0.829650000000     0.429174   
C21      C      0.670560000000     0.025800000000     0.263500000000     0.425827   
C22      C      0.706990000000     0.017060000000     0.438290000000     0.42435    
C23      C      0.751900000000     0.027040000000     0.327140000000     0.427839   
C24      C      0.624050000000     0.015540000000     0.375270000000     0.428174   
C25      C      0.172690000000     0.036170000000     0.015310000000     0.428447   
C26      C      0.045560000000     0.046060000000     0.962310000000     0.427752   
C27      C      0.114110000000     0.101500000000     0.995680000000     0.4309     
C28      C      0.103450000000     0.981410000000     0.981760000000     0.430413   
C29      C      0.095420000000     0.029200000000     0.543270000000     0.432072   
C30      C      0.977700000000     0.011580000000     0.463260000000     0.42957    
C31      C      0.030120000000     0.079360000000     0.491510000000     0.429304   
C32      C      0.043420000000     0.959900000000     0.515460000000     0.42858    
C33      C      0.084780000000     0.384760000000     0.998960000000     0.431012   
C34      C      0.074710000000     0.368350000000     0.178980000000     0.429677   
C35      C      0.081940000000     0.436910000000     0.100140000000     0.43019    
C36      C      0.077860000000     0.317020000000     0.076840000000     0.431478   
C37      C      0.068620000000     0.376430000000     0.519490000000     0.430653   
C38      C      0.072490000000     0.324700000000     0.684170000000     0.431723   
C39      C      0.078770000000     0.404690000000     0.640050000000     0.431331   
C40      C      0.061860000000     0.295560000000     0.564490000000     0.429216   
C41      C      0.106300000000     0.304260000000     0.753270000000     0.0153841  
C42      C      0.056410000000     0.394910000000     0.921060000000     0.0162159  
C43      C      0.119970000000     0.384930000000     0.924350000000     0.0145315  
C44      C      0.049480000000     0.366140000000     0.889530000000    -0.100346   
C45      C      0.112320000000     0.328070000000     0.793860000000    -0.0999098  
C46      C      0.117150000000     0.356730000000     0.889890000000    -0.100114   
C47      C      0.079330000000     0.337910000000     0.821300000000     0.0168777  
C48      C      0.082190000000     0.354720000000     0.863250000000     0.0166095  
C49      C      0.042390000000     0.308890000000     0.758630000000     0.0169997  
C50      C      0.043620000000     0.334460000000     0.797080000000    -0.100185   
C51      C      0.103110000000     0.355090000000     0.255810000000     0.0154679  
C52      C      0.035470000000     0.399770000000     0.451670000000     0.0147746  
C53      C      0.099960000000     0.401290000000     0.451800000000     0.0163394  
C54      C      0.034240000000     0.384550000000     0.401920000000    -0.100063   
C55      C      0.104490000000     0.376630000000     0.299480000000    -0.100928   
C56      C      0.102910000000     0.384520000000     0.403780000000    -0.10022    
C57      C      0.069880000000     0.377950000000     0.326550000000     0.0171128  
C58      C      0.069040000000     0.384340000000     0.374820000000     0.0168836  
C59      C      0.038450000000     0.358400000000     0.251010000000     0.0141479  
C60      C      0.036620000000     0.378810000000     0.296280000000    -0.100683   
C61      C      0.024150000000     0.248450000000     0.556690000000     0.0138183  
C62      C      0.045240000000     0.128080000000     0.446580000000     0.0137137  
C63      C      0.002310000000     0.130240000000     0.514240000000     0.0146753  
C64      C      0.065220000000     0.156680000000     0.466720000000    -0.102203   
C65      C      0.012480000000     0.229750000000     0.513070000000    -0.102488   
C66      C      0.021010000000     0.158910000000     0.535480000000    -0.101839   
C67      C      0.042170000000     0.209170000000     0.495950000000     0.0189151  
C68      C      0.041370000000     0.176840000000     0.497500000000     0.0186684  
C69      C      0.086420000000     0.247790000000     0.525460000000     0.0126638  
C70      C      0.074520000000     0.227770000000     0.482450000000    -0.102676   
C71      C      0.110820000000     0.154770000000     0.959120000000     0.0140574  
C72      C      0.102630000000     0.264340000000     0.094430000000     0.0156896  
C73      C      0.051090000000     0.269970000000     0.038920000000     0.0132425  
C74      C      0.121790000000     0.244310000000     0.057640000000    -0.102063   
C75      C      0.084180000000     0.180470000000     0.973180000000    -0.10279    
C76      C      0.069640000000     0.249520000000     0.001020000000    -0.102128   
C77      C      0.095300000000     0.195910000000     0.019590000000     0.0193149  
C78      C      0.095730000000     0.227880000000     0.025420000000     0.0183317  
C79      C      0.128510000000     0.147950000000     0.045220000000     0.0159666  
C80      C      0.102680000000     0.173410000000     0.060560000000    -0.102369   
C81      C      0.806100000000     0.058670000000     0.329090000000     0.0140541  
C82      C      0.943570000000     0.998540000000     0.391490000000     0.0197495  
C83      C      0.914260000000     0.020590000000     0.465960000000     0.0113729  
C84      C      0.905950000000     0.990170000000     0.377050000000    -0.101727   
C85      C      0.828440000000     0.050980000000     0.372780000000    -0.0990444  
C86      C      0.890480000000     0.038110000000     0.430960000000    -0.101756   
C87      C      0.850000000000     0.020910000000     0.365300000000     0.013082   
C88      C      0.880700000000     0.016780000000     0.389370000000     0.0159905  
C89      C      0.807740000000     0.003240000000     0.300080000000     0.0082412  
C90      C      0.832320000000     0.992910000000     0.340290000000    -0.0936657  
C91      C      0.724480000000     0.044560000000     0.512150000000     0.0134625  
C92      C      0.762660000000     0.987710000000     0.694250000000     0.0137508  
C93      C      0.757910000000     0.048640000000     0.684830000000     0.013183   
C94      C      0.778690000000     0.986450000000     0.644060000000    -0.100668   
C95      C      0.716950000000     0.039000000000     0.564890000000    -0.102653   
C96      C      0.775970000000     0.044910000000     0.636640000000    -0.102599   
C97      C      0.738360000000     0.011160000000     0.582210000000     0.0186827  
C98      C      0.764730000000     0.013830000000     0.615110000000     0.0181747  
C99      C      0.734320000000     0.985180000000     0.502200000000     0.0138143  
C100     C      0.729120000000     0.980810000000     0.556210000000    -0.100766   
C101     C      0.665880000000     0.999440000000     0.185770000000     0.0206941  
C102     C      0.687150000000     0.062520000000     0.999300000000     0.0125242  
C103     C      0.697930000000     0.003540000000     0.009580000000     0.00827234 
C104     C      0.688300000000     0.066780000000     0.053780000000    -0.102398   
C105     C      0.645850000000     0.002740000000     0.139060000000    -0.111811   
C106     C      0.702290000000     0.008580000000     0.063040000000    -0.104284   
C107     C      0.656010000000     0.033620000000     0.115790000000     0.023829   
C108     C      0.679780000000     0.036010000000     0.079330000000     0.0184244  
C109     C      0.662610000000     0.060400000000     0.193780000000     0.0136731  
C110     C      0.643810000000     0.061360000000     0.145460000000    -0.105498   
C111     C      0.984990000000     0.029270000000     0.976570000000     0.013581   
C112     C      0.852540000000     0.072660000000     0.879570000000     0.0140288  
C113     C      0.851220000000     0.021030000000     0.925510000000     0.00975759 
C114     C      0.891160000000     0.067420000000     0.867210000000    -0.102568   
C115     C      0.949690000000     0.045990000000     0.975160000000    -0.10246    
C116     C      0.889970000000     0.016030000000     0.915220000000    -0.100557   
C117     C      0.939880000000     0.054490000000     0.924480000000     0.0192336  
C118     C      0.908160000000     0.047250000000     0.905320000000     0.0183529  
C119     C      0.002110000000     0.056380000000     0.899210000000     0.013912   
C120     C      0.966960000000     0.073930000000     0.898290000000    -0.103169   
C121     C      0.117230000000     0.448620000000     0.667310000000     0.0152015  
C122     C      0.056170000000     0.573460000000     0.571310000000     0.0154357  
C123     C      0.120880000000     0.573020000000     0.572240000000     0.0148251  
C124     C      0.053770000000     0.548500000000     0.610610000000    -0.100674   
C125     C      0.119820000000     0.478820000000     0.636960000000    -0.0998806  
C126     C      0.121910000000     0.546690000000     0.609920000000    -0.100581   
C127     C      0.086300000000     0.498700000000     0.634270000000     0.016995   
C128     C      0.087240000000     0.529010000000     0.615920000000     0.0171174  
C129     C      0.053350000000     0.453390000000     0.675360000000     0.0165399  
C130     C      0.051150000000     0.482340000000     0.642880000000    -0.100209   
C131     C      0.118520000000     0.795880000000     0.595390000000     0.0130672  
C132     C      0.024660000000     0.910610000000     0.556140000000     0.0142418  
C133     C      0.071550000000     0.908910000000     0.493300000000     0.0126195  
C134     C      0.047120000000     0.890680000000     0.589560000000    -0.101912   
C135     C      0.109080000000     0.820450000000     0.556870000000    -0.101426   
C136     C      0.094350000000     0.887740000000     0.525470000000    -0.101744   
C137     C      0.075840000000     0.838200000000     0.570000000000     0.0175526  
C138     C      0.071780000000     0.869850000000     0.561020000000     0.0180163  
C139     C      0.056400000000     0.793610000000     0.623030000000     0.0149579  
C140     C      0.045310000000     0.817320000000     0.584830000000    -0.101543   
C141     C      0.057690000000     0.615980000000     0.180310000000     0.0158152  
C142     C      0.116580000000     0.486490000000     0.101700000000     0.0144842  
C143     C      0.051430000000     0.488740000000     0.101700000000     0.0143475  
C144     C      0.118720000000     0.511270000000     0.141400000000    -0.101485   
C145     C      0.053870000000     0.583300000000     0.157270000000    -0.100007   
C146     C      0.051480000000     0.513800000000     0.141200000000    -0.10139    
C147     C      0.087450000000     0.563620000000     0.155490000000     0.0172009  
C148     C      0.085990000000     0.531880000000     0.143900000000     0.0175809  
C149     C      0.122060000000     0.613770000000     0.179480000000     0.0157299  
C150     C      0.122720000000     0.580760000000     0.156860000000    -0.0999802  
C151     C      0.120700000000     0.666510000000     0.758870000000     0.0129069  
C152     C      0.054900000000     0.671690000000     0.947040000000     0.0126647  
C153     C      0.122320000000     0.669270000000     0.944700000000     0.0127034  
C154     C      0.054570000000     0.648030000000     0.905600000000    -0.102929   
C155     C      0.119450000000     0.681960000000     0.808280000000    -0.102632   
C156     C      0.118990000000     0.645710000000     0.903430000000    -0.102785   
C157     C      0.086640000000     0.671500000000     0.834190000000     0.0204996  
C158     C      0.086570000000     0.653750000000     0.875350000000     0.0204362  
C159     C      0.054400000000     0.665530000000     0.757710000000     0.0130343  
C160     C      0.054010000000     0.681020000000     0.807130000000    -0.102929   
C161     C      0.065900000000     0.765630000000     0.247890000000     0.0164414  
C162     C      0.122110000000     0.690250000000     0.426860000000     0.0148236  
C163     C      0.057340000000     0.694840000000     0.426110000000     0.0144251  
C164     C      0.126270000000     0.719130000000     0.394430000000    -0.101008   
C165     C      0.061180000000     0.745560000000     0.292800000000    -0.0999357  
C166     C      0.058790000000     0.723650000000     0.392930000000    -0.100967   
C167     C      0.094920000000     0.738890000000     0.320410000000     0.0171258  
C168     C      0.093280000000     0.726040000000     0.365570000000     0.0171464  
C169     C      0.129950000000     0.760560000000     0.248450000000     0.0157171  
C170     C      0.130040000000     0.740640000000     0.294130000000    -0.0998879  
C171     C      0.128800000000     0.808130000000     0.015640000000     0.0129957  
C172     C      0.070500000000     0.933870000000     0.005380000000     0.015137   
C173     C      0.114540000000     0.931320000000     0.938540000000     0.014385   
C174     C      0.083240000000     0.902220000000     0.024750000000    -0.102408   
C175     C      0.121890000000     0.827420000000     0.969990000000    -0.102874   
C176     C      0.128180000000     0.899380000000     0.957200000000    -0.103053   
C177     C      0.093290000000     0.851140000000     0.980170000000     0.0188069  
C178     C      0.099990000000     0.882650000000     0.985540000000     0.0201354  
C179     C      0.065870000000     0.817350000000     0.041720000000     0.0137751  
C180     C      0.059590000000     0.835940000000     0.995930000000    -0.10255    
C181     C      0.573730000000     0.981810000000     0.398730000000     0.0164059  
C182     C      0.521610000000     0.031690000000     0.602010000000     0.0164055  
C183     C      0.521070000000     0.973730000000     0.596730000000     0.0170899  
C184     C      0.529770000000     0.036400000000     0.549060000000    -0.0992577  
C185     C      0.568300000000     0.977950000000     0.452620000000    -0.097359   
C186     C      0.530510000000     0.973520000000     0.543500000000    -0.0969398  
C187     C      0.555160000000     0.007960000000     0.477980000000     0.0140888  
C188     C      0.540960000000     0.006000000000     0.522990000000     0.0146062  
C189     C      0.568790000000     0.039980000000     0.402690000000     0.0157293  
C190     C      0.564770000000     0.040360000000     0.456880000000    -0.0998085  
C191     C      0.276340000000     0.980360000000     0.582700000000     0.0125974  
C192     C      0.152980000000     0.054920000000     0.538990000000     0.0174026  
C193     C      0.135890000000     0.023290000000     0.611380000000     0.0163325  
C194     C      0.186360000000     0.035860000000     0.533200000000    -0.103668   
C195     C      0.248480000000     0.993290000000     0.617390000000    -0.0947399  
C196     C      0.169590000000     0.003520000000     0.607750000000    -0.111057   
C197     C      0.231350000000     0.022140000000     0.595140000000     0.0127746  
C198     C      0.197460000000     0.021830000000     0.580760000000     0.0226798  
C199     C      0.282910000000     0.034550000000     0.545620000000     0.0146653  
C200     C      0.256530000000     0.048060000000     0.580760000000    -0.100231   
C201     C      0.587530000000     0.987580000000     0.038410000000     0.0172061  
C202     C      0.614710000000     0.040480000000     0.829500000000     0.0157653  
C203     C      0.623160000000     0.983200000000     0.835290000000     0.018036   
C204     C      0.605490000000     0.044470000000     0.882380000000    -0.0990587  
C205     C      0.583970000000     0.983080000000     0.984530000000    -0.0978874  
C206     C      0.614270000000     0.981890000000     0.888570000000    -0.0970505  
C207     C      0.589750000000     0.013960000000     0.956660000000     0.0145061  
C208     C      0.601050000000     0.013250000000     0.910060000000     0.0154044  
C209     C      0.579360000000     0.045440000000     0.033530000000     0.0135772  
C210     C      0.575940000000     0.044760000000     0.979020000000    -0.0991766  
C211     C      0.370980000000     0.977310000000     0.754460000000     0.0177319  
C212     C      0.444890000000     0.039350000000     0.934030000000     0.0137735  
C213     C      0.452040000000     0.980700000000     0.929400000000     0.0163035  
C214     C      0.413840000000     0.038410000000     0.899600000000    -0.100666   
C215     C      0.395240000000     0.976150000000     0.797550000000    -0.0981011  
C216     C      0.420260000000     0.977330000000     0.897010000000    -0.0987059  
C217     C      0.398110000000     0.007470000000     0.824810000000     0.0150671  
C218     C      0.412130000000     0.007930000000     0.870100000000     0.0146492  
C219     C      0.369990000000     0.035880000000     0.752430000000     0.0148633  
C220     C      0.392330000000     0.038550000000     0.797620000000    -0.0998965  
C221     C      0.507980000000     0.031930000000     0.256880000000     0.01448    
C222     C      0.424950000000     0.972280000000     0.427180000000     0.0147762  
C223     C      0.424020000000     0.031480000000     0.425680000000     0.0140423  
C224     C      0.460480000000     0.971770000000     0.401930000000    -0.0984035  
C225     C      0.485540000000     0.033830000000     0.301800000000    -0.0988018  
C226     C      0.459870000000     0.032650000000     0.401860000000    -0.100966   
C227     C      0.481200000000     0.002450000000     0.328600000000     0.0152049  
C228     C      0.466970000000     0.002280000000     0.373790000000     0.0149172  
C229     C      0.507230000000     0.973440000000     0.255220000000     0.0161028  
C230     C      0.485780000000     0.971260000000     0.301280000000    -0.0970156  
C231     C      0.349870000000     0.021400000000     0.147150000000     0.0126888  
C232     C      0.234010000000     0.022260000000     0.997260000000     0.0105954  
C233     C      0.217850000000     0.047490000000     0.075790000000     0.0138498  
C234     C      0.257430000000     0.998130000000     0.023050000000    -0.0966546  
C235     C      0.322720000000     0.034220000000     0.111980000000    -0.100136   
C236     C      0.241980000000     0.024710000000     0.102370000000    -0.101223   
C237     C      0.303730000000     0.007750000000     0.085500000000     0.0147793  
C238     C      0.270340000000     0.011950000000     0.069810000000     0.0159341  
C239     C      0.351560000000     0.969260000000     0.105000000000     0.0133716  
C240     C      0.326480000000     0.981140000000     0.066230000000    -0.0983488  
H1       H      0.131550000000     0.316920000000     0.818310000000     0.0420923  
H2       H      0.061530000000     0.415690000000     0.897600000000     0.0253629  
H3       H      0.042100000000     0.285290000000     0.776410000000     0.023972   
H4       H      0.023220000000     0.328050000000     0.823560000000     0.0421938  
H5       H      0.028560000000     0.373550000000     0.864520000000     0.0425763  
H6       H      0.139450000000     0.359150000000     0.864920000000     0.0423418  
H7       H      0.129130000000     0.304420000000     0.728810000000     0.0351785  
H8       H      0.032700000000     0.400340000000     0.942390000000     0.0352021  
H9       H      0.036580000000     0.357570000000     0.780590000000     0.0530974  
H10      H      0.120670000000     0.334420000000     0.910440000000     0.0500053  
H11      H      0.017790000000     0.311100000000     0.737850000000     0.0342925  
H12      H      0.124930000000     0.406710000000     0.902990000000     0.0257421  
H13      H      0.124270000000     0.349810000000     0.778480000000     0.0514484  
H14      H      0.039390000000     0.346420000000     0.911920000000     0.0520341  
H15      H      0.142770000000     0.381380000000     0.948280000000     0.0352566  
H16      H      0.104510000000     0.280100000000     0.769060000000     0.0246242  
H17      H      0.126020000000     0.367030000000     0.321630000000     0.0423052  
H18      H      0.034460000000     0.425980000000     0.447290000000     0.0253769  
H19      H      0.035470000000     0.333110000000     0.261540000000     0.0265013  
H20      H      0.013600000000     0.369980000000     0.316240000000     0.042298   
H21      H      0.014130000000     0.397970000000     0.381770000000     0.0421427  
H22      H      0.124000000000     0.397180000000     0.384390000000     0.0422046  
H23      H      0.127950000000     0.357570000000     0.235660000000     0.0355487  
H24      H      0.011880000000     0.392550000000     0.472030000000     0.0352065  
H25      H      0.031540000000     0.403820000000     0.285920000000     0.050264   
H26      H      0.111210000000     0.359590000000     0.409890000000     0.0518437  
H27      H      0.016020000000     0.364520000000     0.227620000000     0.0358392  
H28      H      0.098800000000     0.427290000000     0.445200000000     0.024718   
H29      H      0.111600000000     0.401040000000     0.288130000000     0.051516   
H30      H      0.025260000000     0.359620000000     0.405710000000     0.0502078  
H31      H      0.123910000000     0.396630000000     0.473060000000     0.0348266  
H32      H      0.101460000000     0.330080000000     0.268260000000     0.0255603  
H33      H      0.988020000000     0.216600000000     0.520330000000     0.0428891  
H34      H      0.025880000000     0.136790000000     0.420050000000     0.0276325  
H35      H      0.097510000000     0.231640000000     0.552930000000     0.0294484  
H36      H      0.096770000000     0.212570000000     0.471680000000     0.0427563  
H37      H      0.075370000000     0.170150000000     0.435620000000     0.0426727  
H38      H      0.001820000000     0.173460000000     0.555220000000     0.0434272  
H39      H      0.002560000000     0.264510000000     0.567500000000     0.0363839  
H40      H      0.064050000000     0.112520000000     0.427530000000     0.0353442  
H41      H      0.068290000000     0.243690000000     0.452010000000     0.0495524  
H42      H      0.039980000000     0.150330000000     0.562580000000     0.0535509  
H43      H      0.107690000000     0.263880000000     0.513510000000     0.0351392  
H44      H      0.980830000000     0.139010000000     0.491030000000     0.0252472  
H45      H      0.005840000000     0.246830000000     0.484240000000     0.0517372  
H46      H      0.087670000000     0.148360000000     0.488480000000     0.0502724  
H47      H      0.990190000000     0.116240000000     0.543470000000     0.0348832  
H48      H      0.028550000000     0.231610000000     0.586640000000     0.0268987  
H49      H      0.082830000000     0.197890000000     0.943480000000     0.043016   
H50      H      0.088550000000     0.248120000000     0.119100000000     0.0252508  
H51      H      0.154390000000     0.159370000000     0.039920000000     0.0250356  
H52      H      0.112200000000     0.185200000000     0.093410000000     0.043537   
H53      H      0.140340000000     0.227980000000     0.075450000000     0.0433094  
H54      H      0.049360000000     0.236110000000     0.981150000000     0.0427274  
H55      H      0.100770000000     0.141670000000     0.927530000000     0.033605   
H56      H      0.121860000000     0.277920000000     0.116010000000     0.0338171  
H57      H      0.077720000000     0.161710000000     0.070500000000     0.0543221  
H58      H      0.083620000000     0.265110000000     0.975380000000     0.0496348  
H59      H      0.131440000000     0.130190000000     0.074270000000     0.0334275  
H60      H      0.033880000000     0.254380000000     0.060630000000     0.0285982  
H61      H      0.057960000000     0.169620000000     0.977800000000     0.0504972  
H62      H      0.138030000000     0.260290000000     0.035220000000     0.0537797  
H63      H      0.034410000000     0.287770000000     0.020550000000     0.033537   
H64      H      0.135710000000     0.166520000000     0.948850000000     0.0284684  
H65      H      0.845490000000     0.071840000000     0.379380000000     0.0426468  
H66      H      0.960600000000     0.977510000000     0.385860000000     0.0315919  
H67      H      0.823950000000     0.010750000000     0.269130000000     0.0255692  
H68      H      0.851100000000     0.975820000000     0.324780000000     0.0414358  
H69      H      0.897690000000     0.968110000000     0.395580000000     0.0494883  
H70      H      0.866960000000     0.045670000000     0.451200000000     0.0427558  
H71      H      0.788970000000     0.079240000000     0.337200000000     0.0356933  
H72      H      0.953530000000     0.017630000000     0.367710000000     0.0299952  
H73      H      0.816830000000     0.979850000000     0.367450000000     0.0526802  
H74      H      0.904040000000     0.059560000000     0.417280000000     0.0505587  
H75      H      0.791590000000     0.982770000000     0.288370000000     0.0375149  
H76      H      0.900110000000     0.999870000000     0.481100000000     0.0321735  
H77      H      0.811160000000     0.047650000000     0.404270000000     0.0511529  
H78      H      0.906350000000     0.985790000000     0.337990000000     0.0441169  
H79      H      0.920490000000     0.036870000000     0.496000000000     0.0349635  
H80      H      0.823650000000     0.065550000000     0.299200000000     0.0260727  
H81      H      0.720530000000     0.061220000000     0.585230000000     0.043417   
H82      H      0.735560000000     0.978320000000     0.692360000000     0.0313832  
H83      H      0.762810000000     0.985270000000     0.494580000000     0.0283085  
H84      H      0.744500000000     0.959900000000     0.566980000000     0.0427614  
H85      H      0.774090000000     0.962730000000     0.628740000000     0.0425605  
H86      H      0.771530000000     0.065730000000     0.613370000000     0.0425433  
H87      H      0.707420000000     0.064200000000     0.499660000000     0.0354744  
H88      H      0.777610000000     0.971300000000     0.717650000000     0.0357924  
H89      H      0.701280000000     0.975050000000     0.563310000000     0.0502859  
H90      H      0.804680000000     0.044550000000     0.642620000000     0.0487811  
H91      H      0.723060000000     0.964200000000     0.483770000000     0.0356781  
H92      H      0.729700000000     0.053480000000     0.678890000000     0.030583   
H93      H      0.688820000000     0.033070000000     0.568940000000     0.050908   
H94      H      0.807520000000     0.988710000000     0.647180000000     0.0492319  
H95      H      0.769040000000     0.069830000000     0.702940000000     0.03461    
H96      H      0.752020000000     0.052460000000     0.508060000000     0.026802   
H97      H      0.649360000000     0.981560000000     0.116280000000     0.0463258  
H98      H      0.659370000000     0.061670000000     0.987840000000     0.0262116  
H99      H      0.689910000000     0.068710000000     0.188660000000     0.0304334  
H100     H      0.647930000000     0.084940000000     0.129390000000     0.0433016  
H101     H      0.669940000000     0.086240000000     0.061810000000     0.0420819  
H102     H      0.697710000000     0.985900000000     0.081690000000     0.0451161  
H103     H      0.655550000000     0.978370000000     0.205020000000     0.0350905  
H104     H      0.698900000000     0.083920000000     0.982610000000     0.0352609  
H105     H      0.615200000000     0.059340000000     0.151510000000     0.0529376  
H106     H      0.730020000000     0.014650000000     0.070360000000     0.0517874  
H107     H      0.649680000000     0.077710000000     0.217950000000     0.0356131  
H108     H      0.670860000000     0.995390000000     0.002190000000     0.0303494  
H109     H      0.617430000000     0.003170000000     0.147250000000     0.0560143  
H110     H      0.714820000000     0.074630000000     0.064630000000     0.0501543  
H111     H      0.715940000000     0.984200000000     0.998590000000     0.0383911  
H112     H      0.693810000000     0.994630000000     0.177690000000     0.0290158  
H113     H      0.929860000000     0.031530000000     0.993970000000     0.0430129  
H114     H      0.850850000000     0.088250000000     0.911510000000     0.0293593  
H115     H      0.000200000000     0.035020000000     0.876060000000     0.0295996  
H116     H      0.960070000000     0.077820000000     0.860260000000     0.0430275  
H117     H      0.903420000000     0.091210000000     0.864400000000     0.0429011  
H118     H      0.901850000000     0.002120000000     0.944530000000     0.0423327  
H119     H      0.993040000000     0.026420000000     0.014440000000     0.0349568  
H120     H      0.839920000000     0.085290000000     0.849280000000     0.0344421  
H121     H      0.969690000000     0.097420000000     0.915850000000     0.0496881  
H122     H      0.892400000000     0.001070000000     0.882730000000     0.0511271  
H123     H      0.022390000000     0.072210000000     0.883710000000     0.0338749  
H124     H      0.848710000000     0.032000000000     0.961440000000     0.0270005  
H125     H      0.951830000000     0.068390000000     0.995850000000     0.0517505  
H126     H      0.893420000000     0.055330000000     0.832100000000     0.0501798  
H127     H      0.838120000000     0.997540000000     0.927120000000     0.0388864  
H128     H      0.981690000000     0.005050000000     0.961520000000     0.0253064  
H129     H      0.141480000000     0.492890000000     0.652600000000     0.0421245  
H130     H      0.056310000000     0.561110000000     0.536220000000     0.0259846  
H131     H      0.057410000000     0.461720000000     0.712640000000     0.0244441  
H132     H      0.032410000000     0.498770000000     0.660300000000     0.0423747  
H133     H      0.031010000000     0.533530000000     0.601020000000     0.0425317  
H134     H      0.143310000000     0.530630000000     0.598710000000     0.0422453  
H135     H      0.139150000000     0.432470000000     0.658150000000     0.0348803  
H136     H      0.032470000000     0.588630000000     0.572510000000     0.0356652  
H137     H      0.040240000000     0.474890000000     0.607870000000     0.0524996  
H138     H      0.129100000000     0.557250000000     0.644900000000     0.0508479  
H139     H      0.028150000000     0.440360000000     0.674420000000     0.0345195  
H140     H      0.121570000000     0.561730000000     0.536360000000     0.0257873  
H141     H      0.127240000000     0.471950000000     0.600030000000     0.0505968  
H142     H      0.048140000000     0.560380000000     0.645160000000     0.0515703  
H143     H      0.144750000000     0.587820000000     0.575630000000     0.0354941  
H144     H      0.120330000000     0.455370000000     0.705460000000     0.0247312  
H145     H      0.131740000000     0.836750000000     0.553730000000     0.0425931  
H146     H      0.007090000000     0.894420000000     0.536010000000     0.0265006  
H147     H      0.062580000000     0.806990000000     0.656180000000     0.0257314  
H148     H      0.022040000000     0.830270000000     0.597530000000     0.0431734  
H149     H      0.030260000000     0.877890000000     0.615120000000     0.0432345  
H150     H      0.109060000000     0.871580000000     0.501540000000     0.0427861  
H151     H      0.140830000000     0.781410000000     0.582450000000     0.0355307  
H152     H      0.007870000000     0.926590000000     0.577740000000     0.0365287  
H153     H      0.036610000000     0.803880000000     0.552840000000     0.053539   
H154     H      0.113430000000     0.902640000000     0.545220000000     0.0494498  
H155     H      0.034220000000     0.777520000000     0.631240000000     0.0351903  
H156     H      0.056370000000     0.893390000000     0.468820000000     0.0281747  
H157     H      0.105250000000     0.808320000000     0.522060000000     0.0500664  
H158     H      0.063200000000     0.906980000000     0.611670000000     0.0529884  
H159     H      0.088970000000     0.923960000000     0.471090000000     0.0361002  
H160     H      0.127160000000     0.808770000000     0.627950000000     0.0273452  
H161     H      0.033540000000     0.570820000000     0.178390000000     0.0421692  
H162     H      0.118440000000     0.498920000000     0.066770000000     0.0270283  
H163     H      0.121970000000     0.610920000000     0.218960000000     0.0248324  
H164     H      0.141920000000     0.566920000000     0.178020000000     0.0421627  
H165     H      0.142830000000     0.524870000000     0.134070000000     0.0425025  
H166     H      0.028770000000     0.529220000000     0.133550000000     0.0424489  
H167     H      0.034390000000     0.630550000000     0.171600000000     0.0351551  
H168     H      0.139570000000     0.470540000000     0.104590000000     0.036134   
H169     H      0.132530000000     0.582980000000     0.119670000000     0.0511533  
H170     H      0.046840000000     0.502050000000     0.176120000000     0.0507511  
H171     H      0.146380000000     0.626620000000     0.169850000000     0.0351249  
H172     H      0.050500000000     0.501100000000     0.066640000000     0.0270705  
H173     H      0.044180000000     0.586470000000     0.120180000000     0.0512971  
H174     H      0.122070000000     0.499070000000     0.176250000000     0.0510075  
H175     H      0.027220000000     0.474390000000     0.104930000000     0.03596    
H176     H      0.058180000000     0.612840000000     0.219740000000     0.0249116  
H177     H      0.144200000000     0.677380000000     0.827150000000     0.0432042  
H178     H      0.048320000000     0.695630000000     0.933040000000     0.0304361  
H179     H      0.051040000000     0.639500000000     0.762100000000     0.0280101  
H180     H      0.029070000000     0.675270000000     0.824650000000     0.0431047  
H181     H      0.029390000000     0.649010000000     0.886610000000     0.0425019  
H182     H      0.143310000000     0.644590000000     0.882350000000     0.0425998  
H183     H      0.143640000000     0.676140000000     0.739390000000     0.0362259  
H184     H      0.033830000000     0.664960000000     0.972400000000     0.0351972  
H185     H      0.053990000000     0.707220000000     0.802630000000     0.0510428  
H186     H      0.116300000000     0.621470000000     0.918660000000     0.0492783  
H187     H      0.031480000000     0.674440000000     0.737410000000     0.0362014  
H188     H      0.130430000000     0.692680000000     0.930150000000     0.0298505  
H189     H      0.118450000000     0.708120000000     0.803590000000     0.0512376  
H190     H      0.055590000000     0.623620000000     0.920580000000     0.0491466  
H191     H      0.143670000000     0.661000000000     0.968540000000     0.0354324  
H192     H      0.124930000000     0.640600000000     0.763400000000     0.0279287  
H193     H      0.042310000000     0.758650000000     0.315560000000     0.0422661  
H194     H      0.121050000000     0.668680000000     0.404040000000     0.0263928  
H195     H      0.131890000000     0.786010000000     0.258640000000     0.0250697  
H196     H      0.150300000000     0.751240000000     0.317570000000     0.0422536  
H197     H      0.149270000000     0.713910000000     0.371810000000     0.0424227  
H198     H      0.035840000000     0.721280000000     0.369150000000     0.0424498  
H199     H      0.041990000000     0.764120000000     0.225560000000     0.0348104  
H200     H      0.145620000000     0.688170000000     0.449870000000     0.0358913  
H201     H      0.138130000000     0.716100000000     0.284780000000     0.0511295  
H202     H      0.055430000000     0.745590000000     0.414390000000     0.0504643  
H203     H      0.153400000000     0.754730000000     0.226810000000     0.0352287  
H204     H      0.054740000000     0.673150000000     0.403800000000     0.0266532  
H205     H      0.049360000000     0.722490000000     0.282390000000     0.0520895  
H206     H      0.132450000000     0.740260000000     0.416560000000     0.0509063  
H207     H      0.033580000000     0.696590000000     0.448700000000     0.0356616  
H208     H      0.068970000000     0.790830000000     0.258890000000     0.0246354  
H209     H      0.146790000000     0.838440000000     0.958530000000     0.0427494  
H210     H      0.047690000000     0.929350000000     0.981780000000     0.0256997  
H211     H      0.071440000000     0.834310000000     0.071120000000     0.0265944  
H212     H      0.037890000000     0.853140000000     0.000180000000     0.0432369  
H213     H      0.061340000000     0.890310000000     0.043260000000     0.0439977  
H214     H      0.136400000000     0.885340000000     0.925610000000     0.0429894  
H215     H      0.147380000000     0.788740000000     0.006810000000     0.0351311  
H216     H      0.061130000000     0.948700000000     0.035580000000     0.0354061  
H217     H      0.050950000000     0.819120000000     0.967750000000     0.0514554  
H218     H      0.151310000000     0.903310000000     0.980410000000     0.0502754  
H219     H      0.041390000000     0.804690000000     0.051170000000     0.0364069  
H220     H      0.094840000000     0.926750000000     0.910210000000     0.0291042  
H221     H      0.113300000000     0.811180000000     0.941040000000     0.0497448  
H222     H      0.103360000000     0.906820000000     0.052470000000     0.0536927  
H223     H      0.136660000000     0.944470000000     0.922120000000     0.0343093  
H224     H      0.141690000000     0.823780000000     0.042290000000     0.0296333  
H225     H      0.549690000000     0.957990000000     0.457110000000     0.040746   
H226     H      0.546640000000     0.029610000000     0.621920000000     0.0240307  
H227     H      0.542400000000     0.037850000000     0.386500000000     0.0237427  
H228     H      0.544480000000     0.058410000000     0.464820000000     0.0412399  
H229     H      0.550620000000     0.054670000000     0.547010000000     0.0423624  
H230     H      0.552070000000     0.956150000000     0.539060000000     0.0420904  
H231     H      0.589400000000     0.961630000000     0.384900000000     0.0345837  
H232     H      0.507530000000     0.052750000000     0.616150000000     0.0341266  
H233     H      0.589770000000     0.048280000000     0.473100000000     0.0525692  
H234     H      0.507490000000     0.964800000000     0.523190000000     0.0522282  
H235     H      0.580180000000     0.062820000000     0.390480000000     0.0343001  
H236     H      0.545660000000     0.973510000000     0.617890000000     0.0253299  
H237     H      0.593570000000     0.971000000000     0.469060000000     0.0518456  
H238     H      0.506020000000     0.045860000000     0.531230000000     0.0538307  
H239     H      0.506290000000     0.951880000000     0.605900000000     0.0345611  
H240     H      0.547750000000     0.980860000000     0.381040000000     0.0260086  
H241     H      0.229750000000     0.973930000000     0.625380000000     0.0416903  
H242     H      0.158980000000     0.076310000000     0.560720000000     0.0247141  
H243     H      0.268920000000     0.027500000000     0.512500000000     0.0249654  
H244     H      0.243590000000     0.069510000000     0.566230000000     0.0428138  
H245     H      0.206300000000     0.050900000000     0.515770000000     0.0438556  
H246     H      0.178120000000     0.997870000000     0.644690000000     0.0471239  
H247     H      0.290930000000     0.960960000000     0.600670000000     0.0358588  
H248     H      0.143790000000     0.063190000000     0.503460000000     0.0327145  
H249     H      0.270740000000     0.056110000000     0.613170000000     0.0535709  
H250     H      0.164120000000     0.980950000000     0.588700000000     0.0537254  
H251     H      0.302020000000     0.053250000000     0.535690000000     0.035129   
H252     H      0.140590000000     0.043460000000     0.636130000000     0.0274317  
H253     H      0.261200000000     0.000330000000     0.651430000000     0.0469073  
H254     H      0.181260000000     0.015930000000     0.508180000000     0.0546493  
H255     H      0.114770000000     0.008270000000     0.626580000000     0.0321143  
H256     H      0.262850000000     0.970130000000     0.551110000000     0.0290149  
H257     H      0.603010000000     0.964380000000     0.974780000000     0.0416888  
H258     H      0.590350000000     0.035420000000     0.809230000000     0.02392    
H259     H      0.607330000000     0.048720000000     0.042620000000     0.0262616  
H260     H      0.590020000000     0.065990000000     0.965790000000     0.0415596  
H261     H      0.581100000000     0.058690000000     0.884270000000     0.0422511  
H262     H      0.594410000000     0.962950000000     0.893400000000     0.0422634  
H263     H      0.579500000000     0.965590000000     0.057320000000     0.0332649  
H264     H      0.625840000000     0.062910000000     0.815250000000     0.0341413  
H265     H      0.547950000000     0.047310000000     0.969300000000     0.052099   
H266     H      0.638360000000     0.974870000000     0.908050000000     0.0538491  
H267     H      0.564830000000     0.066090000000     0.048100000000     0.0343385  
H268     H      0.598640000000     0.980380000000     0.814400000000     0.0247815  
H269     H      0.557360000000     0.974100000000     0.976360000000     0.0541693  
H270     H      0.626850000000     0.058240000000     0.899490000000     0.0534088  
H271     H      0.640670000000     0.963160000000     0.825680000000     0.0337859  
H272     H      0.615510000000     0.991810000000     0.046430000000     0.0250827  
H273     H      0.384610000000     0.957180000000     0.820890000000     0.0418964  
H274     H      0.469000000000     0.043770000000     0.912920000000     0.0248606  
H275     H      0.342030000000     0.035890000000     0.763200000000     0.0243189  
H276     H      0.378790000000     0.056140000000     0.820540000000     0.0420018  
H277     H      0.416500000000     0.059960000000     0.877330000000     0.0420435  
H278     H      0.426490000000     0.957220000000     0.873050000000     0.0420139  
H279     H      0.374520000000     0.955370000000     0.733060000000     0.0351461  
H280     H      0.441470000000     0.059760000000     0.958670000000     0.0350389  
H281     H      0.418290000000     0.048260000000     0.787590000000     0.0502933  
H282     H      0.397150000000     0.970710000000     0.918810000000     0.050131   
H283     H      0.374270000000     0.057240000000     0.729960000000     0.0354236  
H284     H      0.475700000000     0.983080000000     0.906640000000     0.0264103  
H285     H      0.421740000000     0.969090000000     0.785370000000     0.0520301  
H286     H      0.389240000000     0.040500000000     0.920390000000     0.0492629  
H287     H      0.454920000000     0.958540000000     0.950480000000     0.0350662  
H288     H      0.343540000000     0.977500000000     0.767530000000     0.0250845  
H289     H      0.498420000000     0.051750000000     0.324840000000     0.0418954  
H290     H      0.404160000000     0.970490000000     0.399600000000     0.0281373  
H291     H      0.535410000000     0.973040000000     0.264920000000     0.0285153  
H292     H      0.499350000000     0.953550000000     0.323980000000     0.0415299  
H293     H      0.460670000000     0.950040000000     0.379840000000     0.0416097  
H294     H      0.460010000000     0.054510000000     0.380110000000     0.0418249  
H295     H      0.504340000000     0.053900000000     0.235580000000     0.0360652  
H296     H      0.422880000000     0.951060000000     0.450490000000     0.0354799  
H297     H      0.459430000000     0.961990000000     0.292210000000     0.0508939  
H298     H      0.480310000000     0.035270000000     0.429740000000     0.0507386  
H299     H      0.502050000000     0.952120000000     0.233010000000     0.0359016  
H300     H      0.403740000000     0.031770000000     0.397250000000     0.0263167  
H301     H      0.459220000000     0.042680000000     0.291750000000     0.051085   
H302     H      0.481470000000     0.969270000000     0.429060000000     0.0495053  
H303     H      0.420430000000     0.053230000000     0.447490000000     0.0353882  
H304     H      0.535880000000     0.031090000000     0.267930000000     0.0284642  
H305     H      0.305160000000     0.050510000000     0.131490000000     0.0426929  
H306     H      0.250370000000     0.042550000000     0.985300000000     0.0291     
H307     H      0.336020000000     0.957950000000     0.133910000000     0.0281095  
H308     H      0.310380000000     0.960610000000     0.054630000000     0.042627   
H309     H      0.279310000000     0.992260000000     0.998590000000     0.0426432  
H310     H      0.251920000000     0.036510000000     0.134900000000     0.0426856  
H311     H      0.366190000000     0.041230000000     0.160800000000     0.0343729  
H312     H      0.222730000000     0.010760000000     0.965030000000     0.0336018  
H313     H      0.341640000000     0.989930000000     0.035100000000     0.0514965  
H314     H      0.226210000000     0.004240000000     0.114980000000     0.0518631  
H315     H      0.368960000000     0.950910000000     0.089370000000     0.0357374  
H316     H      0.232540000000     0.069770000000     0.068880000000     0.0257801  
H317     H      0.336490000000     0.048890000000     0.084940000000     0.0533131  
H318     H      0.242450000000     0.976080000000     0.030320000000     0.049867   
H319     H      0.195400000000     0.053670000000     0.099140000000     0.0345058  
H320     H      0.335690000000     0.011070000000     0.178100000000     0.0252135  
N1       N      0.087190000000     0.388800000000     0.950670000000    -0.180229   
N2       N      0.073540000000     0.311650000000     0.728790000000    -0.180388   
N3       N      0.067970000000     0.391320000000     0.476130000000    -0.179878   
N4       N      0.072200000000     0.362310000000     0.226860000000    -0.179477   
N5       N      0.026590000000     0.111330000000     0.485050000000    -0.179641   
N6       N      0.057080000000     0.265600000000     0.546940000000    -0.179085   
N7       N      0.077030000000     0.285010000000     0.070510000000    -0.180406   
N8       N      0.117350000000     0.133530000000     0.999860000000    -0.180381   
N9       N      0.945960000000     0.009360000000     0.441410000000    -0.181795   
N10      N      0.786450000000     0.030140000000     0.316060000000    -0.179317   
N11      N      0.761400000000     0.020050000000     0.715330000000    -0.179394   
N12      N      0.719210000000     0.015210000000     0.484150000000    -0.180214   
N13      N      0.704440000000     0.033140000000     0.982880000000    -0.178826   
N14      N      0.663600000000     0.028340000000     0.215750000000    -0.180303   
N15      N      0.834940000000     0.042360000000     0.890160000000    -0.178915   
N16      N      0.011460000000     0.046280000000     0.948010000000    -0.179351   
N17      N      0.088630000000     0.591560000000     0.576520000000    -0.17979    
N18      N      0.083010000000     0.433780000000     0.660790000000    -0.180289   
N19      N      0.046940000000     0.927900000000     0.522010000000    -0.178975   
N20      N      0.087810000000     0.776420000000     0.607310000000    -0.17958    
N21      N      0.083230000000     0.469270000000     0.103670000000    -0.179447   
N22      N      0.090440000000     0.630750000000     0.165060000000    -0.17994    
N23      N      0.089210000000     0.673410000000     0.971640000000    -0.178678   
N24      N      0.087700000000     0.671530000000     0.732470000000    -0.178974   
N25      N      0.089540000000     0.692540000000     0.454320000000    -0.179856   
N26      N      0.097320000000     0.755390000000     0.222500000000    -0.180203   
N27      N      0.097990000000     0.949590000000     0.977210000000    -0.179888   
N28      N      0.096030000000     0.795700000000     0.036550000000    -0.179519   
N29      N      0.501310000000     0.002560000000     0.607290000000    -0.181433   
N30      N      0.589970000000     0.012570000000     0.389050000000    -0.180889   
N31      N      0.126650000000     0.035800000000     0.564070000000    -0.181514   
N32      N      0.299500000000     0.006290000000     0.566710000000    -0.180751   
N33      N      0.639030000000     0.013940000000     0.824940000000    -0.181471   
N34      N      0.566970000000     0.015210000000     0.052930000000    -0.181641   
N35      N      0.448780000000     0.009090000000     0.959430000000    -0.181225   
N36      N      0.377480000000     0.006270000000     0.727050000000    -0.180908   
N37      N      0.420410000000     0.002140000000     0.453600000000    -0.180662   
N38      N      0.499630000000     0.003100000000     0.230080000000    -0.179774   
N39      N      0.206680000000     0.034080000000     0.029660000000    -0.179129   
N40      N      0.370940000000     0.996390000000     0.124600000000    -0.178526   
Ni1      Ni     0.467630000000     0.033890000000     0.098460000000     0.988725   
Ni2      Ni     0.473270000000     0.977820000000     0.093450000000     1.0034     
Ni3      Ni     0.400780000000     0.032300000000     0.589780000000     1.00126    
Ni4      Ni     0.399320000000     0.975900000000     0.591650000000     0.99613    
Ni5      Ni     0.124340000000     0.711240000000     0.097410000000     0.99389    
Ni6      Ni     0.062300000000     0.713740000000     0.099680000000     1.00179    
Ni7      Ni     0.119570000000     0.683920000000     0.593840000000     0.99343    
Ni8      Ni     0.057480000000     0.683810000000     0.593400000000     0.998635   
Ni9      Ni     0.734070000000     0.055410000000     0.846210000000     0.992043   
Ni10     Ni     0.742010000000     0.999820000000     0.855930000000     1.00631    
Ni11     Ni     0.685740000000     0.049280000000     0.355230000000     0.999667   
Ni12     Ni     0.690260000000     0.993280000000     0.347000000000     0.994678   
Ni13     Ni     0.118270000000     0.042790000000     0.948160000000     0.987732   
Ni14     Ni     0.100050000000     0.040050000000     0.029350000000     1.00071    
Ni15     Ni     0.050880000000     0.017720000000     0.465770000000     0.994144   
Ni16     Ni     0.022520000000     0.021570000000     0.541090000000     0.995206   
Ni17     Ni     0.048850000000     0.378030000000     0.085790000000     0.994697   
Ni18     Ni     0.110710000000     0.375680000000     0.092170000000     0.999508   
Ni19     Ni     0.039670000000     0.353140000000     0.605130000000     1.0015     
Ni20     Ni     0.101260000000     0.347460000000     0.598240000000     0.99176    
O1       O      0.419880000000     0.027330000000     0.117040000000    -0.45194    
O2       O      0.515470000000     0.036710000000     0.079120000000    -0.451778   
O3       O      0.454360000000     0.033400000000     0.032420000000    -0.450691   
O4       O      0.481920000000     0.030660000000     0.163790000000    -0.450838   
O5       O      0.484810000000     0.978090000000     0.160130000000    -0.449239   
O6       O      0.461860000000     0.981260000000     0.027310000000    -0.452736   
O7       O      0.521360000000     0.984270000000     0.077820000000    -0.451997   
O8       O      0.424550000000     0.975100000000     0.108010000000    -0.453787   
O9       O      0.352040000000     0.031260000000     0.575630000000    -0.455036   
O10      O      0.449600000000     0.029610000000     0.603250000000    -0.45453    
O11      O      0.410880000000     0.029360000000     0.523140000000    -0.454441   
O12      O      0.390340000000     0.031550000000     0.656690000000    -0.452514   
O13      O      0.390860000000     0.978870000000     0.658800000000    -0.450125   
O14      O      0.407890000000     0.976740000000     0.524140000000    -0.448834   
O15      O      0.448690000000     0.976890000000     0.602320000000    -0.450175   
O16      O      0.349970000000     0.978670000000     0.580960000000    -0.44933    
O17      O      0.120240000000     0.690600000000     0.036800000000    -0.451536   
O18      O      0.124320000000     0.732320000000     0.158130000000    -0.451162   
O19      O      0.120880000000     0.671150000000     0.129330000000    -0.451889   
O20      O      0.123700000000     0.751470000000     0.065560000000    -0.451605   
O21      O      0.065820000000     0.754270000000     0.069540000000    -0.454648   
O22      O      0.062900000000     0.673170000000     0.130370000000    -0.453457   
O23      O      0.066330000000     0.734010000000     0.160470000000    -0.453961   
O24      O      0.062310000000     0.693570000000     0.038350000000    -0.452339   
O25      O      0.117970000000     0.688120000000     0.525960000000    -0.453038   
O26      O      0.117120000000     0.679380000000     0.661920000000    -0.450912   
O27      O      0.117680000000     0.638680000000     0.587080000000    -0.450882   
O28      O      0.117280000000     0.729260000000     0.599780000000    -0.450224   
O29      O      0.059280000000     0.728790000000     0.602270000000    -0.452927   
O30      O      0.059690000000     0.638830000000     0.584800000000    -0.453309   
O31      O      0.059140000000     0.678000000000     0.661110000000    -0.452522   
O32      O      0.059980000000     0.689450000000     0.525510000000    -0.451944   
O33      O      0.747070000000     0.050110000000     0.780740000000    -0.450885   
O34      O      0.720840000000     0.056840000000     0.912360000000    -0.450463   
O35      O      0.782260000000     0.060560000000     0.862840000000    -0.451898   
O36      O      0.686490000000     0.046720000000     0.830310000000    -0.453062   
O37      O      0.694180000000     0.994680000000     0.837690000000    -0.451444   
O38      O      0.789150000000     0.008800000000     0.874790000000    -0.453887   
O39      O      0.727370000000     0.004760000000     0.920610000000    -0.457805   
O40      O      0.755490000000     0.998310000000     0.790070000000    -0.450007   
O41      O      0.673170000000     0.050860000000     0.289150000000    -0.452543   
O42      O      0.698940000000     0.044120000000     0.420580000000    -0.453466   
O43      O      0.734010000000     0.051660000000     0.338160000000    -0.453544   
O44      O      0.637790000000     0.043160000000     0.372050000000    -0.453319   
O45      O      0.642310000000     0.990740000000     0.366420000000    -0.44889    
O46      O      0.737790000000     0.999490000000     0.327850000000    -0.44943    
O47      O      0.704770000000     0.991960000000     0.412570000000    -0.448345   
O48      O      0.675980000000     0.998420000000     0.282020000000    -0.449575   
O49      O      0.165390000000     0.038300000000     0.970740000000    -0.449537   
O50      O      0.069990000000     0.046850000000     0.931030000000    -0.449919   
O51      O      0.120550000000     0.087990000000     0.955640000000    -0.449853   
O52      O      0.114430000000     0.997490000000     0.945970000000    -0.448843   
O53      O      0.096250000000     0.995180000000     0.021310000000    -0.452187   
O54      O      0.104990000000     0.085110000000     0.032080000000    -0.453927   
O55      O      0.052980000000     0.043760000000     0.006800000000    -0.452281   
O56      O      0.148280000000     0.036440000000     0.046580000000    -0.45231    
O57      O      0.093660000000     0.026780000000     0.497800000000    -0.455036   
O58      O      0.005780000000     0.009570000000     0.438470000000    -0.45167    
O59      O      0.043780000000     0.062380000000     0.458500000000    -0.451805   
O60      O      0.056720000000     0.973250000000     0.478540000000    -0.44818    
O61      O      0.026710000000     0.976460000000     0.546250000000    -0.449735   
O62      O      0.019720000000     0.066460000000     0.530460000000    -0.450874   
O63      O      0.979210000000     0.016730000000     0.508260000000    -0.454695   
O64      O      0.067990000000     0.026230000000     0.569090000000    -0.451727   
O65      O      0.054740000000     0.385180000000     0.019000000000    -0.453942   
O66      O      0.047030000000     0.370680000000     0.153430000000    -0.450574   
O67      O      0.052390000000     0.422790000000     0.096750000000    -0.451396   
O68      O      0.049580000000     0.333170000000     0.074200000000    -0.451096   
O69      O      0.107020000000     0.330700000000     0.085520000000    -0.454355   
O70      O      0.110330000000     0.420850000000     0.098900000000    -0.453343   
O71      O      0.104870000000     0.370890000000     0.159550000000    -0.453164   
O72      O      0.112410000000     0.380360000000     0.023990000000    -0.451418   
O73      O      0.040150000000     0.371730000000     0.542530000000    -0.451494   
O74      O      0.043300000000     0.334210000000     0.666980000000    -0.453792   
O75      O      0.047950000000     0.393940000000     0.632730000000    -0.454656   
O76      O      0.035360000000     0.311840000000     0.577820000000    -0.454538   
O77      O      0.092770000000     0.306940000000     0.568930000000    -0.44912    
O78      O      0.105540000000     0.388310000000     0.627880000000    -0.450676   
O79      O      0.100700000000     0.327910000000     0.660030000000    -0.451501   
O80      O      0.097870000000     0.367610000000     0.537280000000    -0.452823   


