data_structure

_audit_creation_method RASPA-1.0
_audit_creation_date 2023-6-5
_audit_author_name 'Poobodin Mano'

_cell_length_a    61.8133
_cell_length_b    60.902
_cell_length_c    37.5873
_cell_angle_alpha 89.9384
_cell_angle_beta  90.0609
_cell_angle_gamma 119.933
_cell_volume      122625

_symmetry_cell_setting          triclinic
_symmetry_space_group_name_Hall 'P 1'
_symmetry_space_group_name_H-M  'P 1'
_symmetry_Int_Tables_number     1

_symmetry_equiv_pos_as_xyz 'x,y,z'

loop_
_atom_site_label
_atom_site_type_symbol
_atom_site_fract_x
_atom_site_fract_y
_atom_site_fract_z
_atom_site_charge
C1       C      0.870280000000     0.685120000000     0.569640000000     0.450015   
C2       C      0.844270000000     0.682270000000     0.699720000000     0.445868   
C3       C      0.811930000000     0.663830000000     0.613830000000     0.42953    
C4       C      0.902560000000     0.703450000000     0.655430000000     0.426567   
C5       C      0.177450000000     0.832940000000     0.870930000000     0.455016   
C6       C      0.209230000000     0.850120000000     0.742830000000     0.429462   
C7       C      0.238330000000     0.864600000000     0.829520000000     0.430097   
C8       C      0.148430000000     0.818620000000     0.783580000000     0.449473   
C9       C      0.533120000000     0.024940000000     0.948260000000     0.452518   
C10      C      0.503720000000     0.011810000000     0.077420000000     0.431131   
C11      C      0.473020000000     0.993100000000     0.991950000000     0.44915    
C12      C      0.563910000000     0.043640000000     0.033320000000     0.450712   
C13      C      0.180640000000     0.346840000000     0.390460000000     0.42984    
C14      C      0.183240000000     0.340740000000     0.255410000000     0.431094   
C15      C      0.229370000000     0.363350000000     0.326810000000     0.450333   
C16      C      0.134660000000     0.324570000000     0.319370000000     0.42905    
C17      C      0.868800000000     0.207630000000     0.070600000000     0.430474   
C18      C      0.858730000000     0.201740000000     0.205610000000     0.430611   
C19      C      0.816060000000     0.178950000000     0.130990000000     0.427218   
C20      C      0.910940000000     0.229970000000     0.145830000000     0.451022   
C21      C      0.542580000000     0.525270000000     0.384090000000     0.451819   
C22      C      0.508490000000     0.500970000000     0.510790000000     0.451085   
C23      C      0.481430000000     0.487980000000     0.421630000000     0.427797   
C24      C      0.569630000000     0.538390000000     0.473030000000     0.45121    
C25      C      0.172100000000     0.321740000000     0.886100000000     0.453254   
C26      C      0.161320000000     0.341090000000     0.757290000000     0.452447   
C27      C      0.146930000000     0.357280000000     0.842100000000     0.430167   
C28      C      0.186570000000     0.305520000000     0.800900000000     0.431444   
C29      C      0.331930000000     0.169060000000     0.658980000000     0.429305   
C30      C      0.311010000000     0.172870000000     0.528670000000     0.432171   
C31      C      0.294830000000     0.190090000000     0.612190000000     0.451329   
C32      C      0.348430000000     0.151790000000     0.574860000000     0.428897   
C33      C      0.024980000000     0.522510000000     0.037760000000     0.447877   
C34      C      0.026650000000     0.541470000000     0.904840000000     0.457129   
C35      C      0.008900000000     0.561630000000     0.985510000000     0.452144   
C36      C      0.042730000000     0.502210000000     0.958020000000     0.45495    
C37      C      0.657140000000     0.836090000000     0.257840000000     0.452272   
C38      C      0.661430000000     0.819200000000     0.390220000000     0.4522     
C39      C      0.678170000000     0.800190000000     0.307920000000     0.450121   
C40      C      0.640270000000     0.855440000000     0.339290000000     0.432764   
C41      C      0.854550000000     0.682130000000     0.199360000000     0.424697   
C42      C      0.831090000000     0.685550000000     0.069580000000     0.426203   
C43      C      0.811410000000     0.696000000000     0.156640000000     0.427723   
C44      C      0.874540000000     0.671520000000     0.112200000000     0.428517   
C45      C      0.523200000000     0.010480000000     0.579860000000     0.430331   
C46      C      0.504950000000     0.009980000000     0.447250000000     0.450614   
C47      C      0.491600000000     0.035260000000     0.526340000000     0.452933   
C48      C      0.536310000000     0.985440000000     0.501060000000     0.451337   
C49      C      0.342330000000     0.160530000000     0.027940000000     0.449426   
C50      C      0.335380000000     0.165350000000     0.162610000000     0.449908   
C51      C      0.362830000000     0.211210000000     0.091540000000     0.429926   
C52      C      0.314890000000     0.114550000000     0.099530000000     0.431111   
C53      C      0.520760000000     0.507470000000     0.016330000000     0.427388   
C54      C      0.508770000000     0.498920000000     0.881330000000     0.426665   
C55      C      0.489880000000     0.454910000000     0.956050000000     0.450847   
C56      C      0.539370000000     0.551150000000     0.940970000000     0.427194   
C57      C      0.193210000000     0.856820000000     0.374140000000     0.455193   
C58      C      0.178390000000     0.842430000000     0.240410000000     0.431146   
C59      C      0.161730000000     0.801800000000     0.319100000000     0.449153   
C60      C      0.209740000000     0.897310000000     0.296020000000     0.454369   
C61      C      0.020900000000     0.493960000000     0.404870000000     0.429026   
C62      C      0.026680000000     0.519260000000     0.535660000000     0.427656   
C63      C      0.044390000000     0.553160000000     0.450550000000     0.426472   
C64      C      0.003330000000     0.460310000000     0.488850000000     0.449312   
C65      C      0.830820000000     0.177360000000     0.704570000000     0.449613   
C66      C      0.818460000000     0.170480000000     0.569830000000     0.455344   
C67      C      0.790280000000     0.127940000000     0.643860000000     0.430033   
C68      C      0.859190000000     0.220280000000     0.630350000000     0.432074   
C69      C      0.657680000000     0.841100000000     0.758400000000     0.429894   
C70      C      0.659700000000     0.862140000000     0.890360000000     0.429165   
C71      C      0.674040000000     0.897590000000     0.808130000000     0.45027    
C72      C      0.643210000000     0.805150000000     0.841150000000     0.449074   
C73      C      0.671790000000     0.951700000000     0.767780000000    -0.0364156  
C74      C      0.765420000000     0.063590000000     0.674440000000    -0.0308875  
C75      C      0.745510000000     0.095860000000     0.652230000000    -0.00540322 
C76      C      0.777620000000     0.082430000000     0.644010000000    -0.00426133 
C77      C      0.712090000000     0.009630000000     0.686940000000    -0.0516492  
C78      C      0.718870000000     0.016940000000     0.760410000000    -0.0512911  
C79      C      0.725860000000     0.034280000000     0.700440000000     0.0633289  
C80      C      0.733840000000     0.076130000000     0.682040000000    -0.0306131  
C81      C      0.705580000000     0.992260000000     0.746860000000     0.0630202  
C82      C      0.714630000000     0.960350000000     0.767470000000    -0.120905   
C83      C      0.702190000000     0.988750000000     0.709790000000    -0.0538423  
C84      C      0.709410000000     0.941280000000     0.797320000000     0.3278     
C85      C      0.664710000000     0.932090000000     0.797530000000    -0.000460063
C86      C      0.729130000000     0.037800000000     0.737510000000    -0.0539887  
C87      C      0.954640000000     0.398850000000     0.525490000000    -0.0364827  
C88      C      0.918110000000     0.273540000000     0.597860000000    -0.0302459  
C89      C      0.871800000000     0.265750000000     0.629580000000    -0.00407304 
C90      C      0.904170000000     0.252150000000     0.624890000000    -0.00510135 
C91      C      0.942760000000     0.340040000000     0.600880000000    -0.0517814  
C92      C      0.941610000000     0.338150000000     0.526550000000    -0.0513684  
C93      C      0.928500000000     0.316700000000     0.583740000000     0.0635182  
C94      C      0.886640000000     0.286330000000     0.602050000000    -0.0305516  
C95      C      0.955660000000     0.361530000000     0.543680000000     0.0625436  
C96      C      0.994410000000     0.400270000000     0.529870000000    -0.119566   
C97      C      0.956110000000     0.362320000000     0.581150000000    -0.0534745  
C98      C      0.006580000000     0.422010000000     0.502820000000     0.325868   
C99      C      0.964520000000     0.419740000000     0.497440000000     0.000751841
C100     C      0.927990000000     0.315920000000     0.546280000000    -0.054599   
C101     C      0.148630000000     0.735700000000     0.340350000000    -0.0361178  
C102     C      0.053090000000     0.616180000000     0.421420000000    -0.0308293  
C103     C      0.081980000000     0.590310000000     0.427500000000    -0.00476312 
C104     C      0.039110000000     0.587260000000     0.424570000000    -0.00465958 
C105     C      0.092000000000     0.657190000000     0.356420000000    -0.0517066  
C106     C      0.109330000000     0.696030000000     0.406880000000    -0.0517635  
C107     C      0.088730000000     0.651090000000     0.392690000000     0.0627172  
C108     C      0.093410000000     0.619000000000     0.424220000000    -0.030659   
C109     C      0.112850000000     0.702150000000     0.370600000000     0.0624856  
C110     C      0.109600000000     0.735460000000     0.340250000000    -0.120369   
C111     C      0.103890000000     0.682470000000     0.345340000000    -0.0540336  
C112     C      0.122250000000     0.764340000000     0.336940000000     0.326774   
C113     C      0.164120000000     0.764530000000     0.337470000000     0.00238963 
C114     C      0.097330000000     0.670740000000     0.417950000000    -0.0545829  
C115     C      0.643220000000     0.744810000000     0.862010000000    -0.0365573  
C116     C      0.553180000000     0.618120000000     0.927730000000    -0.0307263  
C117     C      0.578940000000     0.588920000000     0.924490000000    -0.00487024 
C118     C      0.537520000000     0.589300000000     0.926100000000    -0.00444661 
C119     C      0.593400000000     0.662260000000     0.866710000000    -0.0517796  
C120     C      0.607610000000     0.697120000000     0.922480000000    -0.0521304  
C121     C      0.589640000000     0.653610000000     0.901930000000     0.0627593  
C122     C      0.592070000000     0.617900000000     0.926190000000    -0.0304978  
C123     C      0.610540000000     0.705680000000     0.887240000000     0.0622123  
C124     C      0.600580000000     0.735920000000     0.861540000000    -0.120665   
C125     C      0.603880000000     0.688070000000     0.859300000000    -0.0539983  
C126     C      0.608300000000     0.764010000000     0.861000000000     0.326548   
C127     C      0.653670000000     0.773460000000     0.862420000000     0.00200858 
C128     C      0.597370000000     0.671320000000     0.929890000000    -0.0549338  
C129     C      0.216690000000     0.953860000000     0.254270000000    -0.0364895  
C130     C      0.305890000000     0.057370000000     0.139400000000    -0.0308983  
C131     C      0.274540000000     0.074270000000     0.104840000000    -0.00493427 
C132     C      0.314920000000     0.073960000000     0.106030000000    -0.00475944 
C133     C      0.256270000000     0.997990000000     0.160220000000    -0.0518798  
C134     C      0.264640000000     0.013550000000     0.231330000000    -0.050636   
C135     C      0.269230000000     0.023910000000     0.168210000000     0.063771   
C136     C      0.266410000000     0.057670000000     0.138300000000    -0.0307369  
C137     C      0.251950000000     0.987640000000     0.223330000000     0.0631132  
C138     C      0.256290000000     0.954130000000     0.251010000000    -0.121804   
C139     C      0.247620000000     0.979950000000     0.187450000000    -0.0535242  
C140     C      0.249890000000     0.937730000000     0.284510000000     0.329594   
C141     C      0.209260000000     0.937460000000     0.287900000000    -0.00078011 
C142     C      0.273190000000     0.031600000000     0.204100000000    -0.0541469  
C143     C      0.438360000000     0.394260000000     0.987770000000    -0.0364411  
C144     C      0.414150000000     0.273050000000     0.065190000000    -0.0301794  
C145     C      0.362350000000     0.251600000000     0.087430000000    -0.00517771 
C146     C      0.403070000000     0.251710000000     0.092810000000    -0.00571311 
C147     C      0.425620000000     0.334450000000     0.062060000000    -0.0515348  
C148     C      0.425660000000     0.331550000000     0.987800000000    -0.0510901  
C149     C      0.413790000000     0.310690000000     0.045510000000     0.0637631  
C150     C      0.374760000000     0.272920000000     0.060040000000    -0.0303904  
C151     C      0.437310000000     0.355320000000     0.004340000000     0.0628412  
C152     C      0.476440000000     0.391820000000     0.987170000000    -0.120378   
C153     C      0.437380000000     0.356620000000     0.041770000000    -0.0532322  
C154     C      0.488560000000     0.413250000000     0.959790000000     0.327287   
C155     C      0.448940000000     0.415640000000     0.960290000000    -0.000283167
C156     C      0.414050000000     0.309370000000     0.008110000000    -0.0543529  
C157     C      0.638310000000     0.803780000000     0.481620000000    -0.0367004  
C158     C      0.679240000000     0.833950000000     0.668010000000    -0.0297246  
C159     C      0.634880000000     0.830090000000     0.701620000000    -0.00494303 
C160     C      0.681960000000     0.846450000000     0.704230000000    -0.00575824 
C161     C      0.657730000000     0.843580000000     0.585020000000    -0.0513742  
C162     C      0.659460000000     0.800480000000     0.563930000000    -0.0511535  
C163     C      0.658360000000     0.827360000000     0.610930000000     0.063681   
C164     C      0.634830000000     0.818140000000     0.665790000000    -0.0300167  
C165     C      0.659760000000     0.817200000000     0.538050000000     0.0629155  
C166     C      0.683000000000     0.833640000000     0.483140000000    -0.12164    
C167     C      0.658140000000     0.838480000000     0.548880000000    -0.0533726  
C168     C      0.686430000000     0.826020000000     0.445710000000     0.328183   
C169     C      0.640240000000     0.794840000000     0.444280000000    -3.44497e-05
C170     C      0.658470000000     0.805280000000     0.600100000000    -0.0543299  
C171     C      0.677480000000     0.865400000000     0.167370000000    -0.0360026  
C172     C      0.636370000000     0.853040000000     0.981380000000    -0.0304574  
C173     C      0.684220000000     0.881430000000     0.945120000000    -0.00584131 
C174     C      0.637650000000     0.864000000000     0.944250000000    -0.00533644 
C175     C      0.656710000000     0.877600000000     0.063450000000    -0.0517582  
C176     C      0.657700000000     0.834030000000     0.084320000000    -0.0516351  
C177     C      0.658210000000     0.861910000000     0.037520000000     0.0632844  
C178     C      0.681430000000     0.870160000000     0.982310000000    -0.0299236  
C179     C      0.657110000000     0.850200000000     0.110290000000     0.0626449  
C180     C      0.633530000000     0.834650000000     0.164860000000    -0.120169   
C181     C      0.655860000000     0.871710000000     0.099550000000    -0.0536663  
C182     C      0.633900000000     0.823320000000     0.201130000000     0.327095   
C183     C      0.680700000000     0.856140000000     0.203660000000     0.00118924 
C184     C      0.657950000000     0.839600000000     0.048210000000    -0.0545272  
C185     C      0.684750000000     0.744090000000     0.280600000000    -0.0362424  
C186     C      0.785240000000     0.735860000000     0.190370000000    -0.0305936  
C187     C      0.769850000000     0.682410000000     0.181580000000    -0.00455861 
C188     C      0.805330000000     0.728600000000     0.185260000000    -0.00459599 
C189     C      0.735240000000     0.732560000000     0.197650000000    -0.0549135  
C190     C      0.728740000000     0.733990000000     0.271110000000    -0.0540502  
C191     C      0.746570000000     0.723270000000     0.221130000000     0.0628812  
C192     C      0.751760000000     0.692460000000     0.186790000000    -0.0305634  
C193     C      0.718850000000     0.744850000000     0.247760000000     0.062534   
C194     C      0.725560000000     0.781200000000     0.281850000000    -0.121796   
C195     C      0.721650000000     0.743430000000     0.211000000000    -0.0522595  
C196     C      0.715400000000     0.799140000000     0.288040000000     0.327656   
C197     C      0.671460000000     0.759340000000     0.286090000000     0.0033231  
C198     C      0.742620000000     0.723450000000     0.257780000000    -0.0514399  
C199     C      0.584130000000     0.973910000000     0.462220000000    -0.0364281  
C200     C      0.595390000000     0.871560000000     0.377560000000    -0.0300844  
C201     C      0.645970000000     0.898200000000     0.349080000000    -0.00513411 
C202     C      0.602780000000     0.859570000000     0.347700000000    -0.00527025 
C203     C      0.602790000000     0.910160000000     0.435880000000    -0.0542865  
C204     C      0.580220000000     0.936020000000     0.406630000000    -0.0535258  
C205     C      0.600990000000     0.911470000000     0.398660000000     0.063556   
C206     C      0.636920000000     0.908810000000     0.378750000000    -0.0301547  
C207     C      0.582250000000     0.934950000000     0.443850000000     0.0631621  
C208     C      0.545100000000     0.933850000000     0.466080000000    -0.120832   
C209     C      0.593560000000     0.921910000000     0.458180000000    -0.0517161  
C210     C      0.535270000000     0.944050000000     0.495340000000     0.328022   
C211     C      0.575880000000     0.985540000000     0.491470000000    -8.29006e-05
C212     C      0.589620000000     0.924440000000     0.384330000000    -0.0514076  
C213     C      0.005350000000     0.528640000000     0.811900000000    -0.0365608  
C214     C      0.050980000000     0.540880000000     0.628390000000    -0.0301788  
C215     C      0.003770000000     0.518260000000     0.589440000000    -0.00510279 
C216     C      0.049390000000     0.528460000000     0.592360000000    -0.00531349 
C217     C      0.030370000000     0.557010000000     0.694870000000    -0.0532719  
C218     C      0.027250000000     0.521470000000     0.744840000000    -0.0536412  
C219     C      0.027880000000     0.533890000000     0.683200000000     0.0633291  
C220     C      0.008000000000     0.530850000000     0.625920000000    -0.0303221  
C221     C      0.028220000000     0.543910000000     0.756550000000     0.064138   
C222     C      0.050540000000     0.555240000000     0.812560000000    -0.11951    
C223     C      0.030220000000     0.561770000000     0.731260000000    -0.0511245  
C224     C      0.050200000000     0.564460000000     0.850450000000     0.328516   
C225     C      0.003210000000     0.536830000000     0.849520000000     0.00093508 
C226     C      0.026790000000     0.516460000000     0.708490000000    -0.0502653  
C227     C      0.046510000000     0.522250000000     0.131080000000    -0.03617    
C228     C      0.998790000000     0.487350000000     0.313610000000    -0.0301459  
C229     C      0.041140000000     0.489330000000     0.350760000000    -0.00526652 
C230     C      0.995330000000     0.475590000000     0.350590000000    -0.00542737 
C231     C      0.022830000000     0.517150000000     0.247640000000    -0.0544545  
C232     C      0.022860000000     0.484310000000     0.195700000000    -0.0532777  
C233     C      0.021270000000     0.494150000000     0.257960000000     0.0631976  
C234     C      0.043210000000     0.500960000000     0.313860000000    -0.0305378  
C235     C      0.022710000000     0.506480000000     0.185320000000     0.0628294  
C236     C      0.002450000000     0.492060000000     0.127780000000    -0.120884   
C237     C      0.023190000000     0.523000000000     0.211600000000    -0.0517433  
C238     C      0.999780000000     0.501500000000     0.091180000000     0.326667   
C239     C      0.046460000000     0.534330000000     0.095410000000     0.00180283 
C240     C      0.021790000000     0.478110000000     0.231720000000    -0.0510791  
C241     C      0.962880000000     0.582740000000     0.007310000000    -0.0359221  
C242     C      0.934580000000     0.674860000000     0.085880000000    -0.0310621  
C243     C      0.881000000000     0.638880000000     0.084250000000    -0.00455119 
C244     C      0.916310000000     0.684920000000     0.087930000000    -0.00426765 
C245     C      0.946090000000     0.641750000000     0.020080000000    -0.0513733  
C246     C      0.965410000000     0.623520000000     0.072250000000    -0.0516117  
C247     C      0.941010000000     0.643300000000     0.055990000000     0.0628291  
C248     C      0.901070000000     0.631350000000     0.082400000000    -0.0307257  
C249     C      0.969360000000     0.620730000000     0.036260000000     0.0634276  
C250     C      0.003970000000     0.619630000000     0.007410000000    -0.119743   
C251     C      0.960270000000     0.630700000000     0.010160000000    -0.0539686  
C252     C      0.016920000000     0.603760000000     0.004910000000     0.326557   
C253     C      0.972890000000     0.564460000000     0.005630000000     0.00208143 
C254     C      0.951480000000     0.634850000000     0.082180000000    -0.0541752  
C255     C      0.325570000000     0.153440000000     0.930980000000    -0.0369841  
C256     C      0.324280000000     0.147440000000     0.754170000000    -0.0297248  
C257     C      0.359190000000     0.190090000000     0.710100000000    -0.00386036 
C258     C      0.315670000000     0.150540000000     0.717410000000    -0.00577721 
C259     C      0.347090000000     0.191340000000     0.827080000000    -0.0525854  
C260     C      0.352860000000     0.153130000000     0.859180000000    -0.053169   
C261     C      0.347030000000     0.172390000000     0.806000000000     0.0633784  
C262     C      0.365230000000     0.184070000000     0.747070000000    -0.0307914  
C263     C      0.352260000000     0.171900000000     0.880390000000     0.0626383  
C264     C      0.368420000000     0.163680000000     0.935470000000    -0.120385   
C265     C      0.349840000000     0.191180000000     0.863880000000    -0.0520901  
C266     C      0.369230000000     0.167840000000     0.975840000000     0.326108   
C267     C      0.323770000000     0.158780000000     0.970040000000     0.00503629 
C268     C      0.350950000000     0.153790000000     0.822170000000    -0.0538918  
C269     C      0.318020000000     0.179920000000     0.250870000000    -0.0372114  
C270     C      0.325160000000     0.195560000000     0.437920000000    -0.0308711  
C271     C      0.287440000000     0.150580000000     0.474730000000    -0.00447158 
C272     C      0.315540000000     0.197950000000     0.474330000000    -0.00462388 
C273     C      0.291030000000     0.157690000000     0.358790000000    -0.0522568  
C274     C      0.339730000000     0.178780000000     0.332870000000    -0.0525986  
C275     C      0.311140000000     0.171060000000     0.382100000000     0.0632508  
C276     C      0.298510000000     0.149590000000     0.438850000000    -0.0307809  
C277     C      0.319410000000     0.164950000000     0.309680000000     0.0624287  
C278     C      0.346100000000     0.163970000000     0.261490000000    -0.120625   
C279     C      0.295110000000     0.154260000000     0.323270000000    -0.0518913  
C280     C      0.345050000000     0.155920000000     0.222560000000     0.326295   
C281     C      0.313300000000     0.170860000000     0.212470000000     0.00404387 
C282     C      0.335640000000     0.181110000000     0.368870000000    -0.0527919  
C283     C      0.439160000000     0.048060000000     0.538600000000    -0.036465   
C284     C      0.404850000000     0.146560000000     0.558870000000    -0.0306534  
C285     C      0.350730000000     0.113980000000     0.557270000000    -0.00503252 
C286     C      0.388340000000     0.158120000000     0.550940000000    -0.00495483 
C287     C      0.414640000000     0.101740000000     0.515780000000    -0.0505211  
C288     C      0.433450000000     0.095220000000     0.580170000000    -0.0514146  
C289     C      0.408820000000     0.109620000000     0.547550000000     0.0635547  
C290     C      0.368870000000     0.104400000000     0.564990000000    -0.0304978  
C291     C      0.439050000000     0.087080000000     0.548430000000     0.0634992  
C292     C      0.477110000000     0.088150000000     0.529990000000    -0.120269   
C293     C      0.429610000000     0.090550000000     0.516080000000    -0.0530176  
C294     C      0.493630000000     0.076460000000     0.537340000000     0.327271   
C295     C      0.453550000000     0.034400000000     0.547230000000     0.00153847 
C296     C      0.418470000000     0.106400000000     0.579860000000    -0.0541033  
C297     C      0.088130000000     0.481890000000     0.932870000000    -0.0362528  
C298     C      0.099230000000     0.373160000000     0.873980000000    -0.0303244  
C299     C      0.152060000000     0.399200000000     0.855110000000    -0.00594086 
C300     C      0.108810000000     0.360060000000     0.849130000000    -0.00475526 
C301     C      0.099910000000     0.412950000000     0.923840000000    -0.0541997  
C302     C      0.085780000000     0.441720000000     0.881980000000    -0.0533166  
C303     C      0.103310000000     0.413970000000     0.886720000000     0.063896   
C304     C      0.140240000000     0.410240000000     0.879720000000    -0.0294791  
C305     C      0.082290000000     0.440650000000     0.919110000000     0.0638079  
C306     C      0.046400000000     0.446340000000     0.924570000000    -0.120009   
C307     C      0.089440000000     0.426190000000     0.939790000000    -0.0514251  
C308     C      0.034820000000     0.458490000000     0.947680000000     0.32774    
C309     C      0.078790000000     0.495530000000     0.957000000000     0.00156729 
C310     C      0.096180000000     0.428430000000     0.866040000000    -0.0506987  
C311     C      0.282010000000     0.236670000000     0.654050000000    -0.0365032  
C312     C      0.190610000000     0.254000000000     0.756300000000    -0.0304967  
C313     C      0.224630000000     0.303680000000     0.786280000000    -0.00573431 
C314     C      0.182430000000     0.263710000000     0.788150000000    -0.0051319  
C315     C      0.222590000000     0.255010000000     0.694080000000    -0.0547532  
C316     C      0.248500000000     0.230950000000     0.717520000000    -0.0539902  
C317     C      0.226310000000     0.253480000000     0.730770000000     0.0632038  
C318     C      0.231160000000     0.292550000000     0.754390000000    -0.0296801  
C319     C      0.244710000000     0.232390000000     0.680820000000     0.0627713  
C320     C      0.244760000000     0.195120000000     0.658430000000    -0.120397   
C321     C      0.231680000000     0.244450000000     0.669410000000    -0.0521184  
C322     C      0.253160000000     0.185050000000     0.627150000000     0.327028   
C323     C      0.291530000000     0.228360000000     0.622260000000    -3.09728e-05
C324     C      0.239280000000     0.241360000000     0.742190000000    -0.0520393  
C325     C      0.494270000000     0.512650000000     0.601250000000    -0.0365036  
C326     C      0.515780000000     0.487140000000     0.785180000000    -0.0307237  
C327     C      0.489420000000     0.506000000000     0.828700000000    -0.00509972 
C328     C      0.525260000000     0.496530000000     0.822870000000    -0.00457973 
C329     C      0.518870000000     0.516860000000     0.709810000000    -0.0514327  
C330     C      0.477700000000     0.474540000000     0.680240000000    -0.051539   
C331     C      0.501060000000     0.498330000000     0.732350000000     0.0628058  
C332     C      0.482370000000     0.496640000000     0.790370000000    -0.0306046  
C333     C      0.495200000000     0.493390000000     0.657710000000     0.0628536  
C334     C      0.507890000000     0.481480000000     0.603740000000    -0.119954   
C335     C      0.516240000000     0.514320000000     0.672860000000    -0.0537178  
C336     C      0.500650000000     0.474040000000     0.564750000000     0.327421   
C337     C      0.486690000000     0.506540000000     0.562170000000    -0.000402715
C338     C      0.480710000000     0.476730000000     0.717210000000    -0.0537044  
C339     C      0.537890000000     0.541710000000     0.293050000000    -0.0370301  
C340     C      0.549500000000     0.513260000000     0.105960000000    -0.0296737  
C341     C      0.505420000000     0.511670000000     0.075000000000    -0.00470302 
C342     C      0.540330000000     0.501050000000     0.069420000000    -0.00653374 
C343     C      0.518700000000     0.500000000000     0.190470000000    -0.0512078  
C344     C      0.561380000000     0.544630000000     0.211380000000    -0.0516315  
C345     C      0.534480000000     0.516850000000     0.164430000000     0.0629607  
C346     C      0.516700000000     0.523780000000     0.111000000000    -0.0306399  
C347     C      0.546070000000     0.527320000000     0.237370000000     0.0627156  
C348     C      0.553330000000     0.511820000000     0.293400000000    -0.121902   
C349     C      0.524180000000     0.505260000000     0.226610000000    -0.0535114  
C350     C      0.564180000000     0.520230000000     0.330810000000     0.328378   
C351     C      0.548600000000     0.551200000000     0.330310000000    -0.000334799
C352     C      0.555520000000     0.539700000000     0.175240000000    -0.0544405  
C353     C      0.832210000000     0.198620000000     0.797780000000    -0.0367844  
C354     C      0.867850000000     0.185450000000     0.979610000000    -0.0304654  
C355     C      0.870640000000     0.229570000000     0.014340000000    -0.00511509 
C356     C      0.880890000000     0.194240000000     0.015580000000    -0.00512401 
C357     C      0.837370000000     0.180680000000     0.915000000000    -0.0547329  
C358     C      0.869770000000     0.209880000000     0.860460000000    -0.0534368  
C359     C      0.861250000000     0.200940000000     0.923460000000     0.0635409  
C360     C      0.857660000000     0.219280000000     0.978570000000    -0.0303429  
C361     C      0.846480000000     0.188710000000     0.851970000000     0.0627551  
C362     C      0.856970000000     0.177990000000     0.794830000000    -0.121003   
C363     C      0.830250000000     0.174490000000     0.879500000000    -0.0519018  
C364     C      0.845900000000     0.165900000000     0.758830000000     0.326864   
C365     C      0.819190000000     0.186970000000     0.762550000000     0.00154203 
C366     C      0.877140000000     0.215680000000     0.895950000000    -0.0515858  
C367     C      0.833310000000     0.163620000000     0.477960000000    -0.0362896  
C368     C      0.839810000000     0.209550000000     0.296150000000    -0.0303859  
C369     C      0.863280000000     0.183720000000     0.261970000000    -0.00489823 
C370     C      0.854340000000     0.220230000000     0.261550000000    -0.00502821 
C371     C      0.856970000000     0.204720000000     0.380180000000    -0.0522557  
C372     C      0.808860000000     0.164890000000     0.394580000000    -0.0519723  
C373     C      0.841310000000     0.190780000000     0.352020000000     0.0632451  
C374     C      0.848650000000     0.174950000000     0.296760000000    -0.0304826  
C375     C      0.824860000000     0.178240000000     0.422790000000     0.0629209  
C376     C      0.812550000000     0.188700000000     0.478450000000    -0.120047   
C377     C      0.848810000000     0.198740000000     0.415310000000    -0.0540322  
C378     C      0.800480000000     0.177740000000     0.514610000000     0.327336   
C379     C      0.821860000000     0.151620000000     0.513670000000     0.000479704
C380     C      0.816850000000     0.171220000000     0.359400000000    -0.0545725  
C381     C      0.146960000000     0.326840000000     0.663670000000    -0.0367641  
C382     C      0.180380000000     0.372480000000     0.480260000000    -0.030636   
C383     C      0.176060000000     0.326660000000     0.448800000000    -0.00458754 
C384     C      0.191620000000     0.374000000000     0.443540000000    -0.00495565 
C385     C      0.190040000000     0.349950000000     0.563780000000    -0.0519945  
C386     C      0.149150000000     0.354290000000     0.585790000000    -0.0518686  
C387     C      0.174910000000     0.352500000000     0.538300000000     0.0633708  
C388     C      0.165070000000     0.327380000000     0.484860000000    -0.0304912  
C389     C      0.164680000000     0.352400000000     0.611290000000     0.0631703  
C390     C      0.180600000000     0.370660000000     0.669590000000    -0.122554   
C391     C      0.184830000000     0.349510000000     0.599960000000    -0.0539964  
C392     C      0.172450000000     0.372190000000     0.707430000000     0.328514   
C393     C      0.137530000000     0.327170000000     0.701140000000     0.00036577 
C394     C      0.153930000000     0.353950000000     0.549540000000    -0.0544782  
C395     C      0.154630000000     0.309740000000     0.979050000000    -0.0371923  
C396     C      0.180680000000     0.354180000000     0.158370000000    -0.0309067  
C397     C      0.183910000000     0.316850000000     0.203500000000    -0.00394018 
C398     C      0.173490000000     0.352500000000     0.197640000000    -0.00464629 
C399     C      0.164070000000     0.302710000000     0.092420000000    -0.0525841  
C400     C      0.191580000000     0.344380000000     0.048110000000    -0.0530975  
C401     C      0.177200000000     0.326990000000     0.107410000000     0.0624067  
C402     C      0.192000000000     0.321750000000     0.164650000000    -0.0305902  
C403     C      0.178790000000     0.319820000000     0.033260000000     0.0621     
C404     C      0.199930000000     0.334390000000     0.975160000000    -0.122568   
C405     C      0.165270000000     0.299120000000     0.056000000000    -0.0523436  
C406     C      0.199530000000     0.325140000000     0.937220000000     0.328659   
C407     C      0.152710000000     0.299010000000     0.941690000000     0.00106296 
C408     C      0.191430000000     0.347830000000     0.084840000000    -0.0532123  
C409     C      0.968950000000     0.238200000000     0.180760000000    -0.0363757  
C410     C      0.079580000000     0.323200000000     0.285380000000    -0.0304568  
C411     C      0.092410000000     0.286680000000     0.314050000000    -0.00550534 
C412     C      0.097600000000     0.330240000000     0.316790000000    -0.00530337 
C413     C      0.017550000000     0.277300000000     0.270280000000    -0.0525002  
C414     C      0.028620000000     0.285260000000     0.197670000000    -0.0521683  
C415     C      0.042440000000     0.288590000000     0.259100000000     0.0626407  
C416     C      0.074450000000     0.280740000000     0.282710000000    -0.0306134  
C417     C      0.003730000000     0.274000000000     0.208840000000     0.062158   
C418     C      0.968970000000     0.278120000000     0.186640000000    -0.120349   
C419     C      0.998300000000     0.269950000000     0.245460000000    -0.0538239  
C420     C      0.950650000000     0.271210000000     0.155440000000     0.327318   
C421     C      0.951170000000     0.230460000000     0.149040000000    -0.000348598
C422     C      0.047860000000     0.292460000000     0.222470000000    -0.0549436  
C423     C      0.297640000000     0.412350000000     0.333990000000    -0.0365274  
C424     C      0.419550000000     0.433580000000     0.396090000000    -0.030305   
C425     C      0.445800000000     0.488810000000     0.393590000000    -0.00498182 
C426     C      0.448150000000     0.448300000000     0.395120000000    -0.00565276 
C427     C      0.366180000000     0.425350000000     0.400680000000    -0.0547052  
C428     C      0.347960000000     0.415170000000     0.330910000000    -0.0540289  
C429     C      0.383040000000     0.433320000000     0.371950000000     0.062778   
C430     C      0.417420000000     0.472260000000     0.394750000000    -0.0305315  
C431     C      0.331130000000     0.407910000000     0.359610000000     0.062198   
C432     C      0.293750000000     0.371090000000     0.337700000000    -0.120052   
C433     C      0.340470000000     0.412830000000     0.394430000000    -0.0518195  
C434     C      0.265200000000     0.357470000000     0.339990000000     0.326597   
C435     C      0.269510000000     0.401820000000     0.336450000000     0.00293424 
C436     C      0.373680000000     0.427850000000     0.337150000000    -0.0518724  
C437     C      0.529780000000     0.035370000000     0.853230000000    -0.0360969  
C438     C      0.556200000000     0.032960000000     0.666160000000    -0.0304827  
C439     C      0.508670000000     0.992340000000     0.639510000000    -0.00442947 
C440     C      0.554460000000     0.023710000000     0.627900000000    -0.00510376 
C441     C      0.551600000000     0.041720000000     0.741300000000    -0.0535     
C442     C      0.533670000000     0.999880000000     0.786760000000    -0.0528991  
C443     C      0.540850000000     0.017140000000     0.726710000000     0.0633118  
C444     C      0.512270000000     0.003710000000     0.676750000000    -0.0304635  
C445     C      0.545580000000     0.024510000000     0.801330000000     0.0627812  
C446     C      0.549330000000     0.009580000000     0.860920000000    -0.121947   
C447     C      0.554450000000     0.045270000000     0.778080000000    -0.0512191  
C448     C      0.556780000000     0.018730000000     0.899220000000     0.328312   
C449     C      0.537190000000     0.046150000000     0.890850000000    -2.23484e-06
C450     C      0.531960000000     0.996400000000     0.749950000000    -0.0514417  
C451     C      0.509450000000     0.030620000000     0.351830000000    -0.0362108  
C452     C      0.492480000000     0.985340000000     0.167760000000    -0.0302276  
C453     C      0.493890000000     0.028320000000     0.131370000000    -0.00510571 
C454     C      0.484660000000     0.982960000000     0.128720000000    -0.00519276 
C455     C      0.512170000000     0.005770000000     0.239850000000    -0.0539122  
C456     C      0.475030000000     0.005190000000     0.282970000000    -0.0519298  
C457     C      0.490800000000     0.004310000000     0.224070000000     0.0647116  
C458     C      0.501850000000     0.029180000000     0.170140000000    -0.0298809  
C459     C      0.495620000000     0.004980000000     0.298760000000     0.0636149  
C460     C      0.476030000000     0.987430000000     0.356190000000    -0.120742   
C461     C      0.514260000000     0.005660000000     0.276840000000    -0.0504573  
C462     C      0.482260000000     0.984770000000     0.394840000000     0.326685   
C463     C      0.518970000000     0.030630000000     0.389320000000     0.00331536 
C464     C      0.472530000000     0.004430000000     0.245970000000    -0.049991   
C465     C      0.626740000000     0.058020000000     0.067230000000    -0.0353799  
C466     C      0.751820000000     0.164270000000     0.107820000000    -0.0306133  
C467     C      0.777400000000     0.137250000000     0.130150000000    -0.00516901 
C468     C      0.775660000000     0.178050000000     0.130090000000    -0.00545068 
C469     C      0.710060000000     0.121710000000     0.064130000000    -0.054208   
C470     C      0.668830000000     0.100410000000     0.109800000000    -0.0538613  
C471     C      0.713790000000     0.123980000000     0.101220000000     0.0628127  
C472     C      0.753440000000     0.125290000000     0.107940000000    -0.0305979  
C473     C      0.665090000000     0.098070000000     0.072710000000     0.063018   
C474     C      0.625680000000     0.097070000000     0.065470000000    -0.119596   
C475     C      0.685880000000     0.108840000000     0.050120000000    -0.0515971  
C476     C      0.601720000000     0.085330000000     0.043160000000     0.326355   
C477     C      0.603200000000     0.044010000000     0.044510000000     0.000218333
C478     C      0.693010000000     0.113250000000     0.123810000000    -0.0515033  
C479     C      0.180070000000     0.857180000000     0.472150000000    -0.0362529  
C480     C      0.206230000000     0.834440000000     0.649470000000    -0.030531   
C481     C      0.229440000000     0.880100000000     0.692800000000    -0.00527215 
C482     C      0.216370000000     0.833930000000     0.686410000000    -0.00514242 
C483     C      0.201650000000     0.869710000000     0.581970000000    -0.0529749  
C484     C      0.220450000000     0.847200000000     0.536130000000    -0.0513379  
C485     C      0.216250000000     0.859820000000     0.595990000000     0.0628395  
C486     C      0.219690000000     0.879260000000     0.655090000000    -0.0305135  
C487     C      0.206340000000     0.857400000000     0.521970000000     0.0628691  
C488     C      0.224130000000     0.873850000000     0.463950000000    -0.121817   
C489     C      0.197410000000     0.869200000000     0.545350000000    -0.052708   
C490     C      0.221210000000     0.865540000000     0.425100000000     0.328672   
C491     C      0.174200000000     0.849300000000     0.433090000000     0.00194713 
C492     C      0.225790000000     0.848900000000     0.572430000000    -0.0506891  
C493     C      0.163920000000     0.848580000000     0.959430000000    -0.0362635  
C494     C      0.183630000000     0.826820000000     0.145430000000    -0.0303902  
C495     C      0.158520000000     0.847920000000     0.187200000000    -0.00412225 
C496     C      0.193600000000     0.837120000000     0.182570000000    -0.00408704 
C497     C      0.148540000000     0.815850000000     0.077380000000    -0.0535635  
C498     C      0.185010000000     0.851440000000     0.031920000000    -0.0537893  
C499     C      0.169340000000     0.837410000000     0.091770000000     0.0633886  
C500     C      0.151070000000     0.837610000000     0.149380000000    -0.0305592  
C501     C      0.163590000000     0.830580000000     0.017430000000     0.063326   
C502     C      0.175800000000     0.816220000000     0.965490000000    -0.120085   
C503     C      0.145590000000     0.812740000000     0.040510000000    -0.051157   
C504     C      0.168690000000     0.807780000000     0.926800000000     0.328285   
C505     C      0.156520000000     0.841510000000     0.920520000000     7.75058e-05
C506     C      0.187590000000     0.854940000000     0.068710000000    -0.0517496  
C507     C      0.415840000000     0.940500000000     0.950940000000    -0.03603    
C508     C      0.296310000000     0.914350000000     0.872570000000    -0.0307983  
C509     C      0.277000000000     0.863690000000     0.843010000000    -0.00473644 
C510     C      0.276300000000     0.905070000000     0.843580000000    -0.00430097 
C511     C      0.357330000000     0.926840000000     0.874430000000    -0.0512767  
C512     C      0.353570000000     0.924990000000     0.948640000000    -0.0509689  
C513     C      0.333720000000     0.913980000000     0.890370000000     0.0634495  
C514     C      0.297060000000     0.874920000000     0.872020000000    -0.030394   
C515     C      0.377170000000     0.938070000000     0.932690000000     0.0631791  
C516     C      0.412400000000     0.978390000000     0.949790000000    -0.11995    
C517     C      0.378910000000     0.938790000000     0.895290000000    -0.0534452  
C518     C      0.432870000000     0.991470000000     0.977940000000     0.326583   
C519     C      0.436150000000     0.951480000000     0.979540000000     0.000100585
C520     C      0.331980000000     0.913010000000     0.927760000000    -0.0538911  
C521     C      0.823990000000     0.659800000000     0.793970000000    -0.0364006  
C522     C      0.841970000000     0.708670000000     0.977430000000    -0.0305709  
C523     C      0.806780000000     0.663130000000     0.015890000000    -0.00537504 
C524     C      0.834550000000     0.710680000000     0.015670000000    -0.00586548 
C525     C      0.847680000000     0.686880000000     0.908670000000    -0.0547255  
C526     C      0.810720000000     0.682020000000     0.861060000000    -0.0538803  
C527     C      0.825750000000     0.685600000000     0.921870000000     0.0621808  
C528     C      0.815490000000     0.662780000000     0.977820000000    -0.0307194  
C529     C      0.833220000000     0.684680000000     0.847800000000     0.061783   
C530     C      0.833870000000     0.703250000000     0.790050000000    -0.120327   
C531     C      0.851420000000     0.686720000000     0.871980000000    -0.0519248  
C532     C      0.844280000000     0.706470000000     0.752200000000     0.325803   
C533     C      0.834670000000     0.660190000000     0.757100000000     0.00276661 
C534     C      0.807230000000     0.682790000000     0.897740000000    -0.0517323  
C535     C      0.879530000000     0.706730000000     0.476680000000    -0.0365083  
C536     C      0.855050000000     0.658910000000     0.292430000000    -0.0307881  
C537     C      0.873880000000     0.706560000000     0.253490000000    -0.00495493 
C538     C      0.844120000000     0.658350000000     0.255580000000    -0.00467164 
C539     C      0.888650000000     0.683760000000     0.360570000000    -0.0541434  
C540     C      0.853170000000     0.681950000000     0.408470000000    -0.0536977  
C541     C      0.866810000000     0.682800000000     0.347530000000     0.062552   
C542     C      0.882630000000     0.704100000000     0.290620000000    -0.0306272  
C543     C      0.875580000000     0.684250000000     0.421540000000     0.0624052  
C544     C      0.865550000000     0.661690000000     0.477670000000    -0.119444   
C545     C      0.893030000000     0.684740000000     0.397260000000    -0.0515397  
C546     C      0.874580000000     0.663210000000     0.516150000000     0.326438   
C547     C      0.889130000000     0.710010000000     0.514950000000    -0.000450852
C548     C      0.849030000000     0.681500000000     0.371820000000    -0.0513511  
C549     C      0.630180000000     0.593240000000     0.504470000000    -0.0365386  
C550     C      0.747020000000     0.614790000000     0.586930000000    -0.0296456  
C551     C      0.778690000000     0.669850000000     0.587830000000    -0.00478792 
C552     C      0.775260000000     0.626160000000     0.589880000000    -0.00588392 
C553     C      0.709290000000     0.616850000000     0.519990000000    -0.0505988  
C554     C      0.671140000000     0.597280000000     0.570720000000    -0.0509057  
C555     C      0.715410000000     0.619890000000     0.556220000000     0.0637767  
C556     C      0.750160000000     0.655920000000     0.585060000000    -0.0300977  
C557     C      0.665020000000     0.593610000000     0.534480000000     0.0631091  
C558     C      0.634200000000     0.555810000000     0.504280000000    -0.119992   
C559     C      0.684350000000     0.603950000000     0.509090000000    -0.0531706  
C560     C      0.606080000000     0.538100000000     0.499690000000     0.326807   
C561     C      0.601770000000     0.577800000000     0.500760000000     0.00223209 
C562     C      0.696100000000     0.610400000000     0.581630000000    -0.0541869  
C563     C      0.085920000000     0.807580000000     0.753620000000    -0.0365097  
C564     C      0.963940000000     0.710550000000     0.683980000000    -0.0303963  
C565     C      0.940090000000     0.741380000000     0.677180000000    -0.00538262 
C566     C      0.935410000000     0.697310000000     0.682580000000    -0.00518825 
C567     C      0.018480000000     0.753800000000     0.682770000000    -0.0547308  
C568     C      0.032590000000     0.763350000000     0.754360000000    -0.0536645  
C569     C      0.000090000000     0.746980000000     0.709220000000     0.0629745  
C570     C      0.968320000000     0.752120000000     0.678820000000    -0.030069   
C571     C      0.051020000000     0.770430000000     0.727900000000     0.0624827  
C572     C      0.083820000000     0.767030000000     0.758180000000    -0.119954   
C573     C      0.043720000000     0.765450000000     0.692160000000    -0.0517492  
C574     C      0.112250000000     0.779170000000     0.761040000000     0.326311   
C575     C      0.114400000000     0.822130000000     0.755540000000     0.00152504 
C576     C      0.007370000000     0.751760000000     0.744970000000    -0.0515651  
F1       F      0.723960000000     0.930210000000     0.791280000000    -0.435946   
F2       F      0.030830000000     0.438350000000     0.513920000000    -0.435877   
F3       F      0.109600000000     0.770030000000     0.311380000000    -0.436082   
F4       F      0.592850000000     0.767060000000     0.837170000000    -0.435153   
F5       F      0.260940000000     0.922820000000     0.282130000000    -0.425122   
F6       F      0.513910000000     0.427060000000     0.967040000000    -0.435193   
F7       F      0.705440000000     0.847120000000     0.428980000000    -0.426782   
F8       F      0.612620000000     0.818640000000     0.219640000000    -0.436197   
F9       F      0.729350000000     0.815860000000     0.314900000000    -0.427045   
F10      F      0.509690000000     0.933190000000     0.490910000000    -0.429268   
F11      F      0.071320000000     0.567730000000     0.868070000000    -0.428839   
F12      F      0.984650000000     0.480470000000     0.070510000000    -0.429035   
F13      F      0.035990000000     0.614930000000     0.980090000000    -0.428426   
F14      F      0.379490000000     0.154560000000     0.991720000000    -0.431277   
F15      F      0.369190000000     0.163550000000     0.211550000000    -0.432132   
F16      F      0.513660000000     0.087320000000     0.514000000000    -0.433173   
F17      F      0.012270000000     0.453090000000     0.932380000000    -0.428992   
F18      F      0.245320000000     0.159750000000     0.633570000000    -0.436344   
F19      F      0.517500000000     0.467830000000     0.550220000000    -0.42842    
F20      F      0.563190000000     0.499810000000     0.348610000000    -0.42443    
F21      F      0.864940000000     0.166680000000     0.738410000000    -0.435402   
F22      F      0.799190000000     0.196570000000     0.533590000000    -0.436363   
F23      F      0.193370000000     0.388290000000     0.727210000000    -0.434521   
F24      F      0.218970000000     0.344270000000     0.918120000000    -0.435522   
F25      F      0.935510000000     0.281570000000     0.161700000000    -0.434609   
F26      F      0.255520000000     0.336730000000     0.317380000000    -0.436838   
F27      F      0.555560000000     0.999090000000     0.919390000000    -0.436195   
F28      F      0.460180000000     0.973470000000     0.414090000000    -0.425691   
F29      F      0.586470000000     0.094100000000     0.056330000000    -0.432774   
F30      F      0.240330000000     0.884710000000     0.405530000000    -0.426417   
F31      F      0.185060000000     0.800370000000     0.913860000000    -0.429753   
F32      F      0.446830000000     0.016900000000     0.969010000000    -0.432304   
F33      F      0.834520000000     0.718500000000     0.731900000000    -0.435328   
F34      F      0.858190000000     0.640790000000     0.533220000000    -0.436513   
F35      F      0.602690000000     0.519430000000     0.475540000000    -0.419185   
F36      F      0.117410000000     0.765910000000     0.786500000000    -0.428671   
H1       H      0.740280000000     0.056540000000     0.748700000000     0.0448604  
H2       H      0.659800000000     0.960480000000     0.770010000000     0.0400301  
H3       H      0.734560000000     0.975540000000     0.769330000000     0.082487   
H4       H      0.735210000000     0.087280000000     0.627120000000     0.0412502  
H5       H      0.665260000000     0.941320000000     0.823290000000     0.0388134  
H6       H      0.768370000000     0.047220000000     0.669710000000     0.0406758  
H7       H      0.713390000000     0.068960000000     0.682600000000     0.0384686  
H8       H      0.797970000000     0.089190000000     0.644090000000     0.0488861  
H9       H      0.722100000000     0.019930000000     0.788770000000     0.0495218  
H10      H      0.645160000000     0.916730000000     0.793130000000     0.0456182  
H11      H      0.709870000000     0.006580000000     0.658470000000     0.0480425  
H12      H      0.667930000000     0.941780000000     0.741710000000     0.0425704  
H13      H      0.743090000000     0.112310000000     0.658690000000     0.0465457  
H14      H      0.715320000000     0.951720000000     0.822980000000    -0.00669199 
H15      H      0.774680000000     0.072740000000     0.699980000000     0.0458908  
H16      H      0.741930000000     0.085600000000     0.707880000000     0.0411715  
H17      H      0.692660000000     0.969930000000     0.698410000000     0.0445818  
H18      H      0.711790000000     0.950760000000     0.741240000000     0.0851673  
H19      H      0.769830000000     0.072350000000     0.618450000000     0.0399953  
H20      H      0.916700000000     0.298270000000     0.532300000000     0.0448121  
H21      H      0.934240000000     0.386330000000     0.520980000000     0.0393482  
H22      H      0.003800000000     0.388760000000     0.528110000000     0.0800553  
H23      H      0.877070000000     0.274280000000     0.656570000000     0.0416987  
H24      H      0.958770000000     0.410860000000     0.470710000000     0.0377265  
H25      H      0.938440000000     0.280310000000     0.600080000000     0.039128   
H26      H      0.883580000000     0.302590000000     0.607130000000     0.040365   
H27      H      0.906650000000     0.235890000000     0.617430000000     0.0484302  
H28      H      0.940720000000     0.337290000000     0.497770000000     0.0484128  
H29      H      0.955380000000     0.431290000000     0.501750000000     0.0440307  
H30      H      0.942990000000     0.341000000000     0.629650000000     0.0491991  
H31      H      0.957320000000     0.407420000000     0.552460000000     0.0436128  
H32      H      0.851620000000     0.259060000000     0.625680000000     0.0521382  
H33      H      0.007410000000     0.413970000000     0.476650000000    -0.00663923 
H34      H      0.911870000000     0.265800000000     0.570600000000     0.0416524  
H35      H      0.879510000000     0.278870000000     0.574910000000     0.0471634  
H36      H      0.966290000000     0.380140000000     0.595150000000     0.0456798  
H37      H      0.997510000000     0.408450000000     0.557120000000     0.0850858  
H38      H      0.912850000000     0.258950000000     0.651490000000     0.0440489  
H39      H      0.094940000000     0.666540000000     0.446130000000     0.0435792  
H40      H      0.160040000000     0.728830000000     0.354310000000     0.0400978  
H41      H      0.091470000000     0.728540000000     0.354270000000     0.0775877  
H42      H      0.083850000000     0.582700000000     0.401510000000     0.0405062  
H43      H      0.173410000000     0.772250000000     0.363500000000     0.040571   
H44      H      0.041190000000     0.621820000000     0.406140000000     0.0380899  
H45      H      0.111950000000     0.626810000000     0.411070000000     0.038084   
H46      H      0.022830000000     0.581360000000     0.442530000000     0.0428185  
H47      H      0.116020000000     0.710960000000     0.426600000000     0.0483968  
H48      H      0.179200000000     0.769470000000     0.317610000000     0.0466277  
H49      H      0.085420000000     0.642270000000     0.336700000000     0.0478154  
H50      H      0.144420000000     0.727330000000     0.313150000000     0.0436412  
H51      H      0.093030000000     0.586400000000     0.447300000000     0.0440972  
H52      H      0.120320000000     0.772100000000     0.362770000000    -0.00614659 
H53      H      0.056090000000     0.624690000000     0.448460000000     0.0395605  
H54      H      0.096440000000     0.627460000000     0.451300000000     0.0396189  
H55      H      0.106240000000     0.686660000000     0.317150000000     0.0454524  
H56      H      0.105500000000     0.726800000000     0.313220000000     0.0868026  
H57      H      0.031630000000     0.578980000000     0.397940000000     0.0405571  
H58      H      0.594810000000     0.665120000000     0.957330000000     0.0427435  
H59      H      0.656860000000     0.740720000000     0.875520000000     0.0383394  
H60      H      0.582090000000     0.725280000000     0.874930000000     0.0795347  
H61      H      0.580680000000     0.583230000000     0.897010000000     0.041853   
H62      H      0.660190000000     0.780600000000     0.889820000000     0.0375558  
H63      H      0.542230000000     0.626160000000     0.915480000000     0.0386769  
H64      H      0.610480000000     0.625740000000     0.912660000000     0.0370519  
H65      H      0.521680000000     0.583000000000     0.945040000000     0.0429067  
H66      H      0.612760000000     0.710460000000     0.944230000000     0.0473558  
H67      H      0.670310000000     0.782430000000     0.844740000000     0.0440438  
H68      H      0.587640000000     0.648850000000     0.844950000000     0.0480838  
H69      H      0.641190000000     0.738140000000     0.833960000000     0.0430959  
H70      H      0.588820000000     0.582280000000     0.942460000000     0.0423004  
H71      H      0.605050000000     0.769410000000     0.887880000000    -0.00706795 
H72      H      0.556730000000     0.624250000000     0.956070000000     0.0388092  
H73      H      0.595550000000     0.624170000000     0.954470000000     0.0382448  
H74      H      0.606130000000     0.694170000000     0.831830000000     0.0450597  
H75      H      0.598310000000     0.728890000000     0.833660000000     0.086634   
H76      H      0.529330000000     0.583690000000     0.899000000000     0.0407904  
H77      H      0.283040000000     0.051490000000     0.211030000000     0.0462676  
H78      H      0.208120000000     0.966150000000     0.255450000000     0.0386895  
H79      H      0.276910000000     0.966650000000     0.249730000000     0.0863015  
H80      H      0.267210000000     0.061700000000     0.081180000000     0.0399896  
H81      H      0.214740000000     0.950150000000     0.311480000000     0.0417457  
H82      H      0.314190000000     0.044820000000     0.139600000000     0.0435715  
H83      H      0.245750000000     0.045330000000     0.137690000000     0.0371562  
H84      H      0.335560000000     0.086050000000     0.107120000000     0.0556644  
H85      H      0.268060000000     0.019750000000     0.258790000000     0.0505375  
H86      H      0.188620000000     0.925220000000     0.288290000000     0.0451297  
H87      H      0.253030000000     0.991800000000     0.132760000000     0.0481729  
H88      H      0.209080000000     0.941320000000     0.230560000000     0.0419734  
H89      H      0.266040000000     0.086600000000     0.105180000000     0.0439204  
H90      H      0.258150000000     0.950550000000     0.307760000000     0.00236186 
H91      H      0.312700000000     0.069790000000     0.163310000000     0.0478724  
H92      H      0.271490000000     0.070080000000     0.162190000000     0.0417674  
H93      H      0.237780000000     0.960050000000     0.180520000000     0.0445769  
H94      H      0.250200000000     0.941590000000     0.227190000000     0.0845436  
H95      H      0.310200000000     0.061370000000     0.082440000000     0.0445808  
H96      H      0.405250000000     0.291250000000     0.994660000000     0.044627   
H97      H      0.417720000000     0.383140000000     0.984450000000     0.0391468  
H98      H      0.484100000000     0.378870000000     0.983330000000     0.0831656  
H99      H      0.363270000000     0.260190000000     0.113880000000     0.0409315  
H100     H      0.442130000000     0.407240000000     0.933510000000     0.0375388  
H101     H      0.434470000000     0.285160000000     0.070720000000     0.0424033  
H102     H      0.365920000000     0.284950000000     0.061730000000     0.0379799  
H103     H      0.411780000000     0.239700000000     0.089370000000     0.0531811  
H104     H      0.425620000000     0.330250000000     0.959070000000     0.0491273  
H105     H      0.441350000000     0.428410000000     0.965940000000     0.0441658  
H106     H      0.425700000000     0.335750000000     0.090800000000     0.0494948  
H107     H      0.442520000000     0.402690000000     0.014920000000     0.0427914  
H108     H      0.342330000000     0.239550000000     0.080330000000     0.0443043  
H109     H      0.486060000000     0.404680000000     0.932920000000    -0.0060191  
H110     H      0.411940000000     0.264670000000     0.038180000000     0.0441572  
H111     H      0.371310000000     0.264470000000     0.032930000000     0.0407521  
H112     H      0.446470000000     0.374730000000     0.055260000000     0.0451845  
H113     H      0.481510000000     0.399970000000     0.014450000000     0.0849606  
H114     H      0.408010000000     0.260290000000     0.119800000000     0.0458995  
H115     H      0.658230000000     0.792030000000     0.619500000000     0.0445046  
H116     H      0.622610000000     0.787670000000     0.495820000000     0.0388116  
H117     H      0.700470000000     0.839620000000     0.498520000000     0.084776   
H118     H      0.633570000000     0.847400000000     0.696700000000     0.04416    
H119     H      0.641760000000     0.777460000000     0.446790000000     0.0399372  
H120     H      0.697170000000     0.844830000000     0.653340000000     0.0413004  
H121     H      0.619270000000     0.816970000000     0.649400000000     0.0389767  
H122     H      0.695060000000     0.843190000000     0.720710000000     0.0499886  
H123     H      0.660210000000     0.783780000000     0.556000000000     0.0489312  
H124     H      0.622690000000     0.789710000000     0.429670000000     0.0438773  
H125     H      0.657120000000     0.860350000000     0.592950000000     0.0487095  
H126     H      0.633990000000     0.819440000000     0.479460000000     0.0425979  
H127     H      0.617920000000     0.816570000000     0.716700000000     0.0501116  
H128     H      0.692420000000     0.811640000000     0.448300000000    -0.000770863
H129     H      0.675740000000     0.814330000000     0.672190000000     0.0407041  
H130     H      0.631310000000     0.798510000000     0.669970000000     0.0425022  
H131     H      0.657610000000     0.851350000000     0.529510000000     0.0448982  
H132     H      0.679990000000     0.850150000000     0.480970000000     0.0849842  
H133     H      0.690700000000     0.867260000000     0.700290000000     0.0488798  
H134     H      0.658320000000     0.826720000000     0.028760000000     0.0436292  
H135     H      0.695550000000     0.873510000000     0.152860000000     0.0394615  
H136     H      0.618450000000     0.819520000000     0.148480000000     0.0793451  
H137     H      0.689600000000     0.901700000000     0.947930000000     0.0421185  
H138     H      0.690310000000     0.844990000000     0.199930000000     0.039572   
H139     H      0.620410000000     0.852440000000     0.995930000000     0.0402702  
H140     H      0.698840000000     0.882280000000     0.997580000000     0.0385427  
H141     H      0.620320000000     0.850920000000     0.929540000000     0.0485245  
H142     H      0.658140000000     0.817140000000     0.092170000000     0.0480808  
H143     H      0.693260000000     0.872980000000     0.219990000000     0.0474063  
H144     H      0.656370000000     0.894540000000     0.055590000000     0.0486084  
H145     H      0.672960000000     0.880790000000     0.171380000000     0.0427792  
H146     H      0.699680000000     0.880730000000     0.931110000000     0.0480395  
H147     H      0.633120000000     0.804880000000     0.196740000000    -0.00575567 
H148     H      0.632850000000     0.833290000000     0.978910000000     0.0428937  
H149     H      0.679220000000     0.850940000000     0.979680000000     0.040646   
H150     H      0.654650000000     0.884140000000     0.118990000000     0.0450843  
H151     H      0.629040000000     0.850110000000     0.168380000000     0.0866114  
H152     H      0.638280000000     0.882480000000     0.947120000000     0.0425428  
H153     H      0.751110000000     0.716220000000     0.276120000000     0.0485991  
H154     H      0.672030000000     0.726550000000     0.265580000000     0.0385648  
H155     H      0.743750000000     0.791880000000     0.267700000000     0.0792431  
H156     H      0.771150000000     0.673700000000     0.206930000000     0.0416806  
H157     H      0.662220000000     0.759440000000     0.260710000000     0.0402883  
H158     H      0.793360000000     0.753620000000     0.206330000000     0.038639   
H159     H      0.734640000000     0.677480000000     0.200110000000     0.0373846  
H160     H      0.819910000000     0.742770000000     0.167280000000     0.0430126  
H161     H      0.726670000000     0.734670000000     0.299610000000     0.0460309  
H162     H      0.656390000000     0.749460000000     0.306120000000     0.0444626  
H163     H      0.737810000000     0.732400000000     0.169200000000     0.042659   
H164     H      0.688600000000     0.738310000000     0.306920000000     0.0437368  
H165     H      0.761960000000     0.667140000000     0.161200000000     0.0419098  
H166     H      0.718270000000     0.810390000000     0.263370000000    -0.00546071 
H167     H      0.779790000000     0.739830000000     0.163910000000     0.0389015  
H168     H      0.746240000000     0.696430000000     0.160390000000     0.0384884  
H169     H      0.714050000000     0.751610000000     0.192740000000     0.0476363  
H170     H      0.729190000000     0.775020000000     0.308010000000     0.0896701  
H171     H      0.814410000000     0.729930000000     0.211360000000     0.0401405  
H172     H      0.587920000000     0.925400000000     0.355770000000     0.0495478  
H173     H      0.604830000000     0.982880000000     0.463220000000     0.0388455  
H174     H      0.536830000000     0.913070000000     0.470040000000     0.083834   
H175     H      0.644870000000     0.906660000000     0.323380000000     0.0433568  
H176     H      0.583810000000     0.983800000000     0.517200000000     0.0369158  
H177     H      0.575100000000     0.864930000000     0.375000000000     0.0408758  
H178     H      0.647460000000     0.929870000000     0.377000000000     0.0388369  
H179     H      0.592610000000     0.838690000000     0.351590000000     0.0499278  
H180     H      0.571300000000     0.945700000000     0.394850000000     0.0458344  
H181     H      0.584010000000     0.006080000000     0.485770000000     0.0451031  
H182     H      0.611230000000     0.899990000000     0.447640000000     0.0437486  
H183     H      0.578850000000     0.978270000000     0.435910000000     0.0435447  
H184     H      0.665910000000     0.904250000000     0.353970000000     0.0493139  
H185     H      0.538810000000     0.937930000000     0.521540000000    -0.00599145 
H186     H      0.598560000000     0.865020000000     0.403730000000     0.0413434  
H187     H      0.641100000000     0.903190000000     0.404930000000     0.0421471  
H188     H      0.595050000000     0.920750000000     0.486750000000     0.0485751  
H189     H      0.538870000000     0.937000000000     0.439690000000     0.0875425  
H190     H      0.596610000000     0.863580000000     0.321900000000     0.0488182  
H191     H      0.025430000000     0.498830000000     0.699930000000     0.0503827  
H192     H      0.988050000000     0.524120000000     0.797010000000     0.0418345  
H193     H      0.066840000000     0.570580000000     0.798210000000     0.0847751  
H194     H      0.992300000000     0.497370000000     0.592940000000     0.0429832  
H195     H      0.998680000000     0.552310000000     0.847530000000     0.0420177  
H196     H      0.065360000000     0.539670000000     0.644780000000     0.0408272  
H197     H      0.989890000000     0.521920000000     0.640430000000     0.0387098  
H198     H      0.066900000000     0.540580000000     0.577350000000     0.0457705  
H199     H      0.026470000000     0.507660000000     0.763690000000     0.0478813  
H200     H      0.987290000000     0.520620000000     0.863130000000     0.0508769  
H201     H      0.032010000000     0.571170000000     0.675970000000     0.0447579  
H202     H      0.006680000000     0.511110000000     0.813710000000     0.048867   
H203     H      0.992650000000     0.524200000000     0.572890000000     0.0439571  
H204     H      0.051120000000     0.583140000000     0.848750000000     0.00310104 
H205     H      0.057070000000     0.561300000000     0.624570000000     0.0410834  
H206     H      0.014210000000     0.551290000000     0.622130000000     0.0391093  
H207     H      0.031500000000     0.579350000000     0.739840000000     0.0519439  
H208     H      0.053010000000     0.538340000000     0.813790000000     0.087867   
H209     H      0.048370000000     0.509920000000     0.596990000000     0.0505273  
H210     H      0.021220000000     0.460660000000     0.239270000000     0.049859   
H211     H      0.061670000000     0.536960000000     0.147850000000     0.0394617  
H212     H      0.984280000000     0.484240000000     0.141960000000     0.0814363  
H213     H      0.038670000000     0.470070000000     0.347390000000     0.0428687  
H214     H      0.046870000000     0.552520000000     0.100550000000     0.0419119  
H215     H      0.981060000000     0.476430000000     0.298490000000     0.0396803  
H216     H      0.058340000000     0.500160000000     0.298930000000     0.0379039  
H217     H      0.980700000000     0.477530000000     0.365020000000     0.044675   
H218     H      0.023360000000     0.471590000000     0.176080000000     0.0475113  
H219     H      0.063910000000     0.538930000000     0.080940000000     0.0458632  
H220     H      0.023350000000     0.530360000000     0.267300000000     0.0433184  
H221     H      0.050680000000     0.506630000000     0.126800000000     0.0447798  
H222     H      0.058900000000     0.501120000000     0.365370000000     0.0453192  
H223     H      0.990110000000     0.512620000000     0.094540000000    -0.00624367 
H224     H      0.002630000000     0.507150000000     0.316730000000     0.0404941  
H225     H      0.048420000000     0.521220000000     0.316740000000     0.0404838  
H226     H      0.023700000000     0.540420000000     0.204060000000     0.0482666  
H227     H      0.006570000000     0.476370000000     0.124020000000     0.0892443  
H228     H      0.988480000000     0.455000000000     0.347370000000     0.0407782  
H229     H      0.947940000000     0.635970000000     0.110120000000     0.0438133  
H230     H      0.944420000000     0.572970000000     0.020920000000     0.0403259  
H231     H      0.016680000000     0.637630000000     0.021470000000     0.0805682  
H232     H      0.873410000000     0.637780000000     0.057050000000     0.0390809  
H233     H      0.970610000000     0.555520000000     0.032230000000     0.0428699  
H234     H      0.952110000000     0.689580000000     0.073110000000     0.038344   
H235     H      0.893470000000     0.613350000000     0.067100000000     0.037788   
H236     H      0.923730000000     0.700900000000     0.107220000000     0.0423803  
H237     H      0.972330000000     0.615980000000     0.092590000000     0.0493666  
H238     H      0.961100000000     0.549040000000     0.986660000000     0.0486836  
H239     H      0.938210000000     0.648260000000     0.999680000000     0.0478912  
H240     H      0.959910000000     0.587480000000     0.979760000000     0.044208   
H241     H      0.865430000000     0.624740000000     0.101000000000     0.0436717  
H242     H      0.025500000000     0.604290000000     0.031160000000    -0.00315356 
H243     H      0.939190000000     0.671500000000     0.113280000000     0.0400289  
H244     H      0.905420000000     0.627770000000     0.109850000000     0.0398213  
H245     H      0.963150000000     0.628860000000     0.982170000000     0.0463198  
H246     H      0.000650000000     0.624540000000     0.980150000000     0.0886246  
H247     H      0.915490000000     0.692640000000     0.061450000000     0.0403562  
H248     H      0.351570000000     0.139240000000     0.806480000000     0.0440794  
H249     H      0.311930000000     0.156770000000     0.915940000000     0.0380297  
H250     H      0.387550000000     0.175640000000     0.924540000000     0.0783676  
H251     H      0.356420000000     0.206740000000     0.712160000000     0.0429374  
H252     H      0.323870000000     0.177060000000     0.972200000000     0.0381957  
H253     H      0.307660000000     0.137940000000     0.771850000000     0.0385186  
H254     H      0.379610000000     0.202120000000     0.759460000000     0.0383377  
H255     H      0.305370000000     0.131550000000     0.704670000000     0.0475882  
H256     H      0.354260000000     0.137700000000     0.871030000000     0.0466103  
H257     H      0.305470000000     0.143740000000     0.980510000000     0.0417928  
H258     H      0.344400000000     0.205940000000     0.814950000000     0.047772   
H259     H      0.320250000000     0.133200000000     0.927290000000     0.0449695  
H260     H      0.375560000000     0.195650000000     0.692420000000     0.0417535  
H261     H      0.381960000000     0.188320000000     0.981310000000    -0.00523714 
H262     H      0.332610000000     0.134960000000     0.751920000000     0.0384341  
H263     H      0.373200000000     0.171270000000     0.744860000000     0.0405432  
H264     H      0.349050000000     0.205570000000     0.879830000000     0.0472637  
H265     H      0.362650000000     0.143490000000     0.930300000000     0.0884227  
H266     H      0.302170000000     0.157430000000     0.720660000000     0.0472236  
H267     H      0.351790000000     0.191170000000     0.385820000000     0.0446129  
H268     H      0.301240000000     0.180450000000     0.260390000000     0.0381889  
H269     H      0.349940000000     0.151340000000     0.278530000000     0.0784683  
H270     H      0.269870000000     0.150980000000     0.469980000000     0.0431489  
H271     H      0.295010000000     0.153000000000     0.210850000000     0.0379819  
H272     H      0.330330000000     0.213040000000     0.422310000000     0.0387788  
H273     H      0.284070000000     0.132820000000     0.424060000000     0.0376079  
H274     H      0.330840000000     0.214030000000     0.489050000000     0.0446675  
H275     H      0.358810000000     0.187640000000     0.323680000000     0.0475655  
H276     H      0.311890000000     0.185310000000     0.196040000000     0.0417118  
H277     H      0.272050000000     0.149620000000     0.368400000000     0.0471485  
H278     H      0.334260000000     0.199550000000     0.252450000000     0.0465167  
H279     H      0.282730000000     0.133040000000     0.489810000000     0.0460634  
H280     H      0.334160000000     0.134880000000     0.221260000000    -0.0082587  
H281     H      0.342160000000     0.194000000000     0.442250000000     0.0415812  
H282     H      0.314970000000     0.147030000000     0.442980000000     0.0429278  
H283     H      0.279210000000     0.143660000000     0.305940000000     0.0462263  
H284     H      0.361900000000     0.183730000000     0.264450000000     0.0880633  
H285     H      0.300400000000     0.202510000000     0.470140000000     0.0405598  
H286     H      0.414190000000     0.112270000000     0.604790000000     0.0438321  
H287     H      0.420970000000     0.038270000000     0.552910000000     0.0415023  
H288     H      0.487500000000     0.108410000000     0.538170000000     0.0818405  
H289     H      0.344910000000     0.110080000000     0.528910000000     0.0406702  
H290     H      0.453930000000     0.032380000000     0.576600000000     0.0381949  
H291     H      0.423030000000     0.158060000000     0.545020000000     0.039987   
H292     H      0.360220000000     0.084410000000     0.555740000000     0.0389489  
H293     H      0.397030000000     0.177240000000     0.563280000000     0.0446471  
H294     H      0.440510000000     0.092590000000     0.605250000000     0.0489601  
H295     H      0.443080000000     0.014990000000     0.535830000000     0.0522177  
H296     H      0.407300000000     0.104050000000     0.490760000000     0.0507594  
H297     H      0.435250000000     0.046670000000     0.509500000000     0.0488678  
H298     H      0.333780000000     0.103000000000     0.573870000000     0.0448353  
H299     H      0.501040000000     0.081450000000     0.564910000000    -0.00591856 
H300     H      0.408500000000     0.147580000000     0.588020000000     0.0406754  
H301     H      0.371900000000     0.104700000000     0.594250000000     0.0403095  
H302     H      0.433560000000     0.084340000000     0.491190000000     0.0484897  
H303     H      0.473430000000     0.087430000000     0.500870000000     0.0885581  
H304     H      0.387930000000     0.160600000000     0.521680000000     0.0410142  
H305     H      0.098780000000     0.429430000000     0.837470000000     0.0509362  
H306     H      0.107580000000     0.487570000000     0.940880000000     0.0419172  
H307     H      0.034550000000     0.425370000000     0.926690000000     0.0827391  
H308     H      0.154740000000     0.408070000000     0.828400000000     0.0503151  
H309     H      0.081930000000     0.492220000000     0.985170000000     0.0404745  
H310     H      0.079310000000     0.366360000000     0.867390000000     0.0390544  
H311     H      0.151090000000     0.431270000000     0.877470000000     0.0408139  
H312     H      0.099030000000     0.339530000000     0.855790000000     0.0437296  
H313     H      0.080580000000     0.452880000000     0.865400000000     0.0476694  
H314     H      0.090330000000     0.516210000000     0.951820000000     0.0537112  
H315     H      0.105390000000     0.402000000000     0.940410000000     0.0436736  
H316     H      0.088510000000     0.488050000000     0.904850000000     0.0492446  
H317     H      0.170860000000     0.404510000000     0.865690000000     0.0511739  
H318     H      0.030930000000     0.449590000000     0.974480000000     0.000146136
H319     H      0.100160000000     0.367670000000     0.901970000000     0.039519   
H320     H      0.141500000000     0.405040000000     0.907760000000     0.0405551  
H321     H      0.086950000000     0.425290000000     0.968380000000     0.0496173  
H322     H      0.046290000000     0.451750000000     0.896280000000     0.0877872  
H323     H      0.103700000000     0.361860000000     0.821330000000     0.0433096  
H324     H      0.242450000000     0.240240000000     0.770310000000     0.0483358  
H325     H      0.288950000000     0.257350000000     0.651520000000     0.0385742  
H326     H      0.223990000000     0.184940000000     0.658920000000     0.0813836  
H327     H      0.232580000000     0.300080000000     0.810680000000     0.0471611  
H328     H      0.285990000000     0.234240000000     0.597440000000     0.0372374  
H329     H      0.181050000000     0.232960000000     0.757840000000     0.0383425  
H330     H      0.251700000000     0.300150000000     0.754390000000     0.0392735  
H331     H      0.162090000000     0.256740000000     0.785750000000     0.0442235  
H332     H      0.258750000000     0.222000000000     0.727060000000     0.0445364  
H333     H      0.312270000000     0.238620000000     0.623320000000     0.0439648  
H334     H      0.212870000000     0.264520000000     0.684540000000     0.0430936  
H335     H      0.289780000000     0.233450000000     0.678990000000     0.0428443  
H336     H      0.233710000000     0.324540000000     0.782670000000     0.0525359  
H337     H      0.243690000000     0.186240000000     0.602660000000    -0.00671965 
H338     H      0.184590000000     0.259290000000     0.731350000000     0.0399471  
H339     H      0.226110000000     0.298790000000     0.729390000000     0.0416011  
H340     H      0.228810000000     0.245880000000     0.641270000000     0.0480222  
H341     H      0.251390000000     0.190860000000     0.683680000000     0.083808   
H342     H      0.185390000000     0.255480000000     0.812840000000     0.0418492  
H343     H      0.467090000000     0.461640000000     0.733800000000     0.0442034  
H344     H      0.482000000000     0.518910000000     0.613980000000     0.0387988  
H345     H      0.505790000000     0.464590000000     0.618290000000     0.083504   
H346     H      0.498820000000     0.527040000000     0.828750000000     0.0398112  
H347     H      0.466290000000     0.492920000000     0.561010000000     0.0365556  
H348     H      0.531910000000     0.489850000000     0.768730000000     0.0397742  
H349     H      0.473440000000     0.506720000000     0.777890000000     0.0380471  
H350     H      0.530980000000     0.483590000000     0.835230000000     0.0470712  
H351     H      0.461780000000     0.457990000000     0.669030000000     0.0492918  
H352     H      0.490050000000     0.524160000000     0.548500000000     0.0433197  
H353     H      0.534980000000     0.533250000000     0.721000000000     0.0476938  
H354     H      0.513850000000     0.528620000000     0.602300000000     0.0426748  
H355     H      0.471960000000     0.498900000000     0.844450000000     0.0438958  
H356     H      0.481740000000     0.456940000000     0.563950000000    -0.00516015 
H357     H      0.501840000000     0.466500000000     0.785720000000     0.0425564  
H358     H      0.468440000000     0.476020000000     0.790880000000     0.0395198  
H359     H      0.530620000000     0.528720000000     0.656290000000     0.0446239  
H360     H      0.527850000000     0.496660000000     0.605330000000     0.0866797  
H361     H      0.542210000000     0.515610000000     0.821130000000     0.0425224  
H362     H      0.567600000000     0.553530000000     0.155870000000     0.043064   
H363     H      0.538160000000     0.557640000000     0.278140000000     0.0378783  
H364     H      0.565050000000     0.505720000000     0.278680000000     0.0855344  
H365     H      0.488850000000     0.492670000000     0.079720000000     0.0419425  
H366     H      0.567410000000     0.568260000000     0.327500000000     0.0389123  
H367     H      0.558780000000     0.503840000000     0.119390000000     0.0409195  
H368     H      0.501430000000     0.522410000000     0.128220000000     0.0367817  
H369     H      0.556870000000     0.505980000000     0.052460000000     0.0498983  
H370     H      0.577950000000     0.561990000000     0.219230000000     0.0477999  
H371     H      0.536360000000     0.556970000000     0.344240000000     0.0426213  
H372     H      0.502110000000     0.482650000000     0.182640000000     0.0485482  
H373     H      0.518140000000     0.526150000000     0.295320000000     0.0424921  
H374     H      0.498800000000     0.523490000000     0.061440000000     0.0421027  
H375     H      0.584150000000     0.535010000000     0.328000000000    -0.00193335 
H376     H      0.563620000000     0.533610000000     0.102110000000     0.0393371  
H377     H      0.530620000000     0.544230000000     0.107270000000     0.0396012  
H378     H      0.511480000000     0.491960000000     0.246010000000     0.0456674  
H379     H      0.534150000000     0.495260000000     0.295910000000     0.0854013  
H380     H      0.530040000000     0.480110000000     0.072730000000     0.047677   
H381     H      0.895330000000     0.231670000000     0.902090000000     0.0496115  
H382     H      0.819180000000     0.201800000000     0.814540000000     0.0391934  
H383     H      0.862300000000     0.165440000000     0.809340000000     0.0806472  
H384     H      0.889870000000     0.245450000000     0.009300000000     0.0453538  
H385     H      0.800520000000     0.170360000000     0.768250000000     0.0380949  
H386     H      0.876920000000     0.176520000000     0.964480000000     0.0385099  
H387     H      0.859090000000     0.235380000000     0.962670000000     0.0396632  
H388     H      0.877770000000     0.177350000000     0.031070000000     0.0438898  
H389     H      0.882380000000     0.221700000000     0.839780000000     0.0460877  
H390     H      0.816200000000     0.201220000000     0.748170000000     0.044023   
H391     H      0.824400000000     0.169460000000     0.935720000000     0.0431119  
H392     H      0.849180000000     0.217340000000     0.792780000000     0.0441377  
H393     H      0.860300000000     0.237280000000     0.029090000000     0.047272   
H394     H      0.831690000000     0.145680000000     0.763290000000    -0.00796665 
H395     H      0.847990000000     0.170870000000     0.984310000000     0.0399422  
H396     H      0.837510000000     0.205490000000     0.983080000000     0.0407398  
H397     H      0.812070000000     0.158500000000     0.873360000000     0.0476603  
H398     H      0.874220000000     0.196510000000     0.790150000000     0.0861166  
H399     H      0.901310000000     0.206110000000     0.010880000000     0.0404382  
H400     H      0.804150000000     0.160580000000     0.338080000000     0.0434828  
H401     H      0.836180000000     0.149790000000     0.462260000000     0.0387318  
H402     H      0.799900000000     0.193320000000     0.463160000000     0.081491   
H403     H      0.883560000000     0.194150000000     0.268300000000     0.0397241  
H404     H      0.804770000000     0.133070000000     0.508630000000     0.0364232  
H405     H      0.840870000000     0.225550000000     0.311850000000     0.0396221  
H406     H      0.856400000000     0.165150000000     0.312950000000     0.0370589  
H407     H      0.844560000000     0.227930000000     0.245370000000     0.0472521  
H408     H      0.790270000000     0.149330000000     0.399950000000     0.0486608  
H409     H      0.835230000000     0.147740000000     0.528300000000     0.0443752  
H410     H      0.875660000000     0.220100000000     0.374840000000     0.0478975  
H411     H      0.851860000000     0.180700000000     0.482810000000     0.0431156  
H412     H      0.859480000000     0.166700000000     0.246260000000     0.0432723  
H413     H      0.781160000000     0.161890000000     0.510040000000    -0.00605624 
H414     H      0.819820000000     0.196110000000     0.289980000000     0.0408443  
H415     H      0.828790000000     0.161070000000     0.290550000000     0.0392275  
H416     H      0.861360000000     0.209740000000     0.436580000000     0.0440548  
H417     H      0.830570000000     0.206580000000     0.482680000000     0.0840104  
H418     H      0.873220000000     0.236230000000     0.268080000000     0.0466648  
H419     H      0.141320000000     0.354940000000     0.530480000000     0.0441144  
H420     H      0.130710000000     0.313590000000     0.647070000000     0.0380818  
H421     H      0.189140000000     0.389820000000     0.657300000000     0.0835957  
H422     H      0.193920000000     0.326810000000     0.453180000000     0.0430735  
H423     H      0.122410000000     0.331980000000     0.699220000000     0.0382544  
H424     H      0.191580000000     0.391090000000     0.493780000000     0.0389557  
H425     H      0.164610000000     0.312160000000     0.501860000000     0.0371487  
H426     H      0.188730000000     0.387420000000     0.426900000000     0.0439854  
H427     H      0.133190000000     0.355830000000     0.594100000000     0.0489859  
H428     H      0.129400000000     0.307800000000     0.712570000000     0.0426583  
H429     H      0.205810000000     0.348060000000     0.555470000000     0.0478571  
H430     H      0.160340000000     0.319620000000     0.664790000000     0.0423555  
H431     H      0.162930000000     0.308520000000     0.435410000000     0.0440413  
H432     H      0.160150000000     0.380650000000     0.706100000000    -0.00664943 
H433     H      0.161000000000     0.368890000000     0.476770000000     0.0399861  
H434     H      0.145550000000     0.323430000000     0.481420000000     0.0403456  
H435     H      0.196580000000     0.346990000000     0.618930000000     0.0447967  
H436     H      0.195040000000     0.364870000000     0.671090000000     0.0846309  
H437     H      0.212100000000     0.382040000000     0.446530000000     0.0397125  
H438     H      0.202170000000     0.366880000000     0.095110000000     0.0434297  
H439     H      0.138480000000     0.295410000000     0.994790000000     0.0368669  
H440     H      0.217670000000     0.338260000000     0.988140000000     0.0815628  
H441     H      0.165230000000     0.299470000000     0.205190000000     0.0427084  
H442     H      0.151880000000     0.280390000000     0.943890000000     0.0377055  
H443     H      0.169330000000     0.360400000000     0.142880000000     0.0363616  
H444     H      0.190030000000     0.303920000000     0.153480000000     0.0381601  
H445     H      0.180820000000     0.372030000000     0.208070000000     0.0433533  
H446     H      0.202050000000     0.361030000000     0.031830000000     0.0460328  
H447     H      0.135000000000     0.295810000000     0.929390000000     0.041696   
H448     H      0.153120000000     0.286400000000     0.109250000000     0.0458579  
H449     H      0.153290000000     0.327300000000     0.977680000000     0.0439513  
H450     H      0.197300000000     0.313140000000     0.218500000000     0.0506545  
H451     H      0.202840000000     0.308820000000     0.938660000000    -0.0078268  
H452     H      0.200740000000     0.368800000000     0.155540000000     0.039712   
H453     H      0.212030000000     0.336660000000     0.162670000000     0.0445765  
H454     H      0.155250000000     0.280100000000     0.045270000000     0.0459009  
H455     H      0.199400000000     0.352380000000     0.973560000000     0.0845155  
H456     H      0.152790000000     0.342770000000     0.199610000000     0.037523   
H457     H      0.066910000000     0.300960000000     0.213080000000     0.0427232  
H458     H      0.981070000000     0.229640000000     0.177410000000     0.0376619  
H459     H      0.981190000000     0.299080000000     0.187350000000     0.0822769  
H460     H      0.081250000000     0.279870000000     0.338920000000     0.0389339  
H461     H      0.962470000000     0.236300000000     0.124230000000     0.0365151  
H462     H      0.069360000000     0.333870000000     0.287870000000     0.0383702  
H463     H      0.060460000000     0.260150000000     0.283250000000     0.0369726  
H464     H      0.111410000000     0.350830000000     0.315510000000     0.0441777  
H465     H      0.033070000000     0.288270000000     0.169590000000     0.0475747  
H466     H      0.939510000000     0.209470000000     0.148670000000     0.0431915  
H467     H      0.013090000000     0.274080000000     0.298330000000     0.0474169  
H468     H      0.957890000000     0.230510000000     0.205630000000     0.0425967  
H469     H      0.102550000000     0.276050000000     0.310570000000     0.0440304  
H470     H      0.961630000000     0.279960000000     0.130870000000    -0.00588986 
H471     H      0.090550000000     0.329120000000     0.260240000000     0.0403884  
H472     H      0.085130000000     0.284970000000     0.257370000000     0.0401824  
H473     H      0.979220000000     0.260970000000     0.254820000000     0.0442456  
H474     H      0.958160000000     0.272010000000     0.211920000000     0.0835899  
H475     H      0.086770000000     0.326710000000     0.341820000000     0.0390967  
H476     H      0.386420000000     0.433810000000     0.314800000000     0.0478565  
H477     H      0.307230000000     0.431920000000     0.345030000000     0.0380969  
H478     H      0.300290000000     0.359350000000     0.351750000000     0.077823   
H479     H      0.451590000000     0.494880000000     0.365630000000     0.0391278  
H480     H      0.265120000000     0.406450000000     0.363150000000     0.0369851  
H481     H      0.412930000000     0.414890000000     0.383070000000     0.0402755  
H482     H      0.409140000000     0.482480000000     0.380800000000     0.0370114  
H483     H      0.455190000000     0.438340000000     0.412310000000     0.0506076  
H484     H      0.341220000000     0.411440000000     0.303760000000     0.0448428  
H485     H      0.264160000000     0.411810000000     0.316550000000     0.043009   
H486     H      0.372910000000     0.429230000000     0.427820000000     0.0437032  
H487     H      0.303090000000     0.413540000000     0.305500000000     0.0424298  
H488     H      0.451220000000     0.506160000000     0.409550000000     0.0435059  
H489     H      0.259560000000     0.350260000000     0.367590000000    -0.00557576 
H490     H      0.413170000000     0.430120000000     0.424290000000     0.0417066  
H491     H      0.411130000000     0.469440000000     0.422980000000     0.0399631  
H492     H      0.327740000000     0.407270000000     0.416760000000     0.0479983  
H493     H      0.299580000000     0.372690000000     0.309320000000     0.0862134  
H494     H      0.454370000000     0.448030000000     0.367450000000     0.0448693  
H495     H      0.523280000000     0.977330000000     0.739360000000     0.0483312  
H496     H      0.528830000000     0.049910000000     0.836400000000     0.0408715  
H497     H      0.563280000000     0.005010000000     0.849690000000     0.0816134  
H498     H      0.509560000000     0.974570000000     0.641160000000     0.0457867  
H499     H      0.554910000000     0.064600000000     0.889440000000     0.0436562  
H500     H      0.575470000000     0.039710000000     0.676100000000     0.0386153  
H501     H      0.498420000000     0.988780000000     0.694720000000     0.0377958  
H502     H      0.566630000000     0.040200000000     0.610740000000     0.047032   
H503     H      0.525930000000     0.983180000000     0.803380000000     0.0468988  
H504     H      0.522410000000     0.049710000000     0.901400000000     0.0538251  
H505     H      0.558190000000     0.058320000000     0.724660000000     0.0446181  
H506     H      0.510890000000     0.018140000000     0.853590000000     0.0477208  
H507     H      0.489730000000     0.987330000000     0.629850000000     0.0459103  
H508     H      0.576510000000     0.034400000000     0.899090000000    -0.00651815 
H509     H      0.552690000000     0.049210000000     0.665940000000     0.0421421  
H510     H      0.508460000000     0.019760000000     0.676480000000     0.0429259  
H511     H      0.563320000000     0.064340000000     0.788650000000     0.0482083  
H512     H      0.530750000000     0.991990000000     0.861540000000     0.0851808  
H513     H      0.561960000000     0.010500000000     0.627050000000     0.0409293  
H514     H      0.456360000000     0.004090000000     0.234230000000     0.0526683  
H515     H      0.525520000000     0.044510000000     0.335500000000     0.0413453  
H516     H      0.467130000000     0.968390000000     0.343460000000     0.0823987  
H517     H      0.474240000000     0.024250000000     0.130820000000     0.0474972  
H518     H      0.536390000000     0.029580000000     0.387320000000     0.041763   
H519     H      0.481690000000     0.966400000000     0.180590000000     0.0406204  
H520     H      0.498150000000     0.042870000000     0.184730000000     0.0428167  
H521     H      0.490140000000     0.970330000000     0.114940000000     0.0464059  
H522     H      0.460800000000     0.005710000000     0.299020000000     0.050046   
H523     H      0.524030000000     0.049010000000     0.402260000000     0.0520109  
H524     H      0.527140000000     0.006820000000     0.223770000000     0.0449344  
H525     H      0.495360000000     0.036940000000     0.352550000000     0.0489479  
H526     H      0.505830000000     0.047320000000     0.119300000000     0.0563255  
H527     H      0.490030000000     0.971780000000     0.395510000000     0.00217662 
H528     H      0.512660000000     0.991260000000     0.168760000000     0.0418934  
H529     H      0.522270000000     0.036100000000     0.171430000000     0.0465102  
H530     H      0.530570000000     0.006280000000     0.288570000000     0.0484986  
H531     H      0.462210000000     0.994090000000     0.356090000000     0.0908907  
H532     H      0.463960000000     0.973690000000     0.127520000000     0.0423486  
H533     H      0.695590000000     0.114890000000     0.152380000000     0.0483394  
H534     H      0.638520000000     0.049190000000     0.062650000000     0.0399368  
H535     H      0.636630000000     0.117680000000     0.059270000000     0.0811578  
H536     H      0.772410000000     0.131440000000     0.158380000000     0.0395614  
H537     H      0.608740000000     0.042270000000     0.016970000000     0.0467188  
H538     H      0.739920000000     0.172770000000     0.113730000000     0.0397397  
H539     H      0.742740000000     0.104640000000     0.113960000000     0.03718    
H540     H      0.786410000000     0.198030000000     0.120820000000     0.045566   
H541     H      0.653110000000     0.092320000000     0.127870000000     0.0453291  
H542     H      0.591840000000     0.024480000000     0.055250000000     0.0481491  
H543     H      0.725790000000     0.129880000000     0.046080000000     0.0433187  
H544     H      0.621410000000     0.055630000000     0.095870000000     0.0426489  
H545     H      0.789330000000     0.129490000000     0.120900000000     0.0429591  
H546     H      0.606690000000     0.092120000000     0.015280000000    -0.00244643 
H547     H      0.756780000000     0.167250000000     0.079060000000     0.0404434  
H548     H      0.758420000000     0.127620000000     0.079180000000     0.0392727  
H549     H      0.683300000000     0.107220000000     0.021540000000     0.0496614  
H550     H      0.620730000000     0.095040000000     0.094250000000     0.0865648  
H551     H      0.770380000000     0.178300000000     0.158290000000     0.0410957  
H552     H      0.237060000000     0.841190000000     0.582430000000     0.0488099  
H553     H      0.163450000000     0.844280000000     0.488360000000     0.0383033  
H554     H      0.241310000000     0.874570000000     0.474500000000     0.0821317  
H555     H      0.249900000000     0.887520000000     0.691240000000     0.039579   
H556     H      0.164190000000     0.828250000000     0.431630000000     0.0379892  
H557     H      0.207160000000     0.819780000000     0.632960000000     0.0384379  
H558     H      0.231090000000     0.898260000000     0.642690000000     0.0378236  
H559     H      0.204330000000     0.814900000000     0.698330000000     0.048641   
H560     H      0.227610000000     0.838140000000     0.518750000000     0.0505551  
H561     H      0.161040000000     0.855350000000     0.423050000000     0.0461283  
H562     H      0.193660000000     0.878170000000     0.598840000000     0.0424655  
H563     H      0.183390000000     0.876830000000     0.475030000000     0.042537   
H564     H      0.226520000000     0.893620000000     0.709060000000     0.0434293  
H565     H      0.223240000000     0.848420000000     0.423310000000    -0.00170539 
H566     H      0.186280000000     0.829370000000     0.651450000000     0.0433136  
H567     H      0.199990000000     0.874990000000     0.657150000000     0.0400817  
H568     H      0.186760000000     0.877700000000     0.535810000000     0.0431902  
H569     H      0.226820000000     0.893320000000     0.465940000000     0.0896402  
H570     H      0.235520000000     0.836820000000     0.683500000000     0.0427612  
H571     H      0.204020000000     0.871240000000     0.079410000000     0.0483744  
H572     H      0.152140000000     0.855910000000     0.970840000000     0.038745   
H573     H      0.172890000000     0.799520000000     0.981370000000     0.084956   
H574     H      0.168160000000     0.868970000000     0.186180000000     0.040297   
H575     H      0.135980000000     0.828530000000     0.919280000000     0.0402897  
H576     H      0.199430000000     0.828540000000     0.129090000000     0.040762   
H577     H      0.142470000000     0.847740000000     0.136080000000     0.0381085  
H578     H      0.198800000000     0.824090000000     0.195920000000     0.0482193  
H579     H      0.199760000000     0.865030000000     0.014960000000     0.0443333  
H580     H      0.160730000000     0.858940000000     0.905540000000     0.0439578  
H581     H      0.134560000000     0.801490000000     0.094460000000     0.0460089  
H582     H      0.183760000000     0.864010000000     0.960250000000     0.0423029  
H583     H      0.141220000000     0.841460000000     0.203140000000     0.0488787  
H584     H      0.149500000000     0.791110000000     0.926300000000     0.00242004 
H585     H      0.169250000000     0.806350000000     0.147070000000     0.0442721  
H586     H      0.136780000000     0.817130000000     0.150890000000     0.0425664  
H587     H      0.129370000000     0.796230000000     0.029810000000     0.0517963  
H588     H      0.195960000000     0.830870000000     0.966980000000     0.085302   
H589     H      0.210920000000     0.855820000000     0.179880000000     0.0479859  
H590     H      0.313970000000     0.903210000000     0.940750000000     0.0454963  
H591     H      0.405270000000     0.919510000000     0.953950000000     0.0406979  
H592     H      0.399240000000     0.985790000000     0.952150000000     0.0824649  
H593     H      0.286270000000     0.865390000000     0.816990000000     0.0424837  
H594     H      0.427410000000     0.943690000000     0.005820000000     0.0391731  
H595     H      0.307960000000     0.935330000000     0.870450000000     0.0388865  
H596     H      0.309290000000     0.866420000000     0.869450000000     0.0411241  
H597     H      0.263550000000     0.912550000000     0.849460000000     0.0442864  
H598     H      0.351920000000     0.924280000000     0.977350000000     0.0502457  
H599     H      0.449600000000     0.944800000000     0.974150000000     0.0478114  
H600     H      0.358960000000     0.927770000000     0.845720000000     0.0488481  
H601     H      0.424790000000     0.945060000000     0.924200000000     0.0443829  
H602     H      0.264680000000     0.843150000000     0.848570000000     0.0538469  
H603     H      0.423840000000     0.989990000000     0.004090000000    -0.00436525 
H604     H      0.287130000000     0.909690000000     0.899150000000     0.0418817  
H605     H      0.287940000000     0.869710000000     0.898620000000     0.0455572  
H606     H      0.396890000000     0.948740000000     0.882260000000     0.0455044  
H607     H      0.421020000000     0.983400000000     0.922840000000     0.0859344  
H608     H      0.285490000000     0.913230000000     0.817670000000     0.0399278  
H609     H      0.790010000000     0.681200000000     0.907450000000     0.0475183  
H610     H      0.825610000000     0.645520000000     0.810550000000     0.0385187  
H611     H      0.843400000000     0.722050000000     0.803450000000     0.0777522  
H612     H      0.788620000000     0.662740000000     0.014640000000     0.0395677  
H613     H      0.852730000000     0.660540000000     0.760470000000     0.0389714  
H614     H      0.846240000000     0.726330000000     0.962940000000     0.0380762  
H615     H      0.800180000000     0.646330000000     0.963590000000     0.0371733  
H616     H      0.850850000000     0.726490000000     0.029260000000     0.0435923  
H617     H      0.795980000000     0.679630000000     0.843170000000     0.0454629  
H618     H      0.821780000000     0.642210000000     0.743160000000     0.0435438  
H619     H      0.861990000000     0.688230000000     0.926600000000     0.0429147  
H620     H      0.803790000000     0.653730000000     0.791710000000     0.0438041  
H621     H      0.803620000000     0.645630000000     0.029730000000     0.0430841  
H622     H      0.864870000000     0.719150000000     0.753350000000    -0.0064572  
H623     H      0.859230000000     0.707250000000     0.978270000000     0.0397757  
H624     H      0.832080000000     0.660150000000     0.978550000000     0.0401219  
H625     H      0.868600000000     0.688220000000     0.862280000000     0.0473311  
H626     H      0.813600000000     0.696940000000     0.788480000000     0.0867483  
H627     H      0.819480000000     0.715580000000     0.014670000000     0.0388143  
H628     H      0.831930000000     0.680290000000     0.362230000000     0.048204   
H629     H      0.891190000000     0.724780000000     0.462070000000     0.0393486  
H630     H      0.866840000000     0.646230000000     0.463830000000     0.0814245  
H631     H      0.862120000000     0.715570000000     0.256010000000     0.0404162  
H632     H      0.909510000000     0.716890000000     0.514120000000     0.0368646  
H633     H      0.840590000000     0.642830000000     0.308300000000     0.0388778  
H634     H      0.888950000000     0.722240000000     0.305110000000     0.0379056  
H635     H      0.842220000000     0.641720000000     0.240640000000     0.0421564  
H636     H      0.839010000000     0.680810000000     0.426500000000     0.0448766  
H637     H      0.886640000000     0.724980000000     0.527980000000     0.044744   
H638     H      0.902430000000     0.684120000000     0.342490000000     0.0439024  
H639     H      0.859980000000     0.702990000000     0.477250000000     0.0432981  
H640     H      0.890540000000     0.719670000000     0.237510000000     0.0428313  
H641     H      0.893330000000     0.664870000000     0.515580000000    -0.00624768 
H642     H      0.871470000000     0.656110000000     0.289780000000     0.0400264  
H643     H      0.898910000000     0.701100000000     0.287970000000     0.0388208  
H644     H      0.910150000000     0.686020000000     0.406850000000     0.0489294  
H645     H      0.845590000000     0.656730000000     0.477760000000     0.0843882  
H646     H      0.824990000000     0.655440000000     0.259010000000     0.0423608  
H647     H      0.700330000000     0.612670000000     0.609780000000     0.0447531  
H648     H      0.635090000000     0.611080000000     0.518930000000     0.038725   
H649     H      0.641970000000     0.545330000000     0.518790000000     0.0844158  
H650     H      0.786710000000     0.677400000000     0.561130000000     0.0441768  
H651     H      0.593230000000     0.576800000000     0.527180000000     0.0389643  
H652     H      0.739150000000     0.596060000000     0.573500000000     0.0423512  
H653     H      0.744640000000     0.668180000000     0.570170000000     0.0392489  
H654     H      0.779060000000     0.614640000000     0.609190000000     0.0506594  
H655     H      0.656490000000     0.589550000000     0.590560000000     0.0493796  
H656     H      0.595740000000     0.588120000000     0.482510000000     0.0437987  
H657     H      0.723950000000     0.624150000000     0.500160000000     0.0501439  
H658     H      0.638810000000     0.598420000000     0.477540000000     0.0444448  
H659     H      0.784790000000     0.686380000000     0.605870000000     0.0495971  
H660     H      0.598140000000     0.528780000000     0.525640000000     0.00407518 
H661     H      0.738860000000     0.611590000000     0.614140000000     0.0415014  
H662     H      0.741910000000     0.652760000000     0.612210000000     0.0421482  
H663     H      0.680170000000     0.601590000000     0.480920000000     0.0470187  
H664     H      0.643150000000     0.560960000000     0.477540000000     0.0904963  
H665     H      0.782600000000     0.624470000000     0.563630000000     0.0521661  
H666     H      0.993430000000     0.746600000000     0.765590000000     0.0488374  
H667     H      0.079830000000     0.819070000000     0.737950000000     0.0380573  
H668     H      0.076290000000     0.748010000000     0.745730000000     0.0813135  
H669     H      0.933620000000     0.744240000000     0.703470000000     0.0440215  
H670     H      0.121940000000     0.828550000000     0.728300000000     0.0362527  
H671     H      0.969300000000     0.698530000000     0.699790000000     0.0393559  
H672     H      0.977020000000     0.771420000000     0.690700000000     0.0382415  
H673     H      0.928430000000     0.679900000000     0.666140000000     0.0462498  
H674     H      0.037690000000     0.766920000000     0.782170000000     0.0458384  
H675     H      0.120270000000     0.839400000000     0.771920000000     0.0431293  
H676     H      0.013340000000     0.750280000000     0.654970000000     0.0435272  
H677     H      0.078160000000     0.805240000000     0.781000000000     0.0431019  
H678     H      0.936170000000     0.752490000000     0.657290000000     0.0458505  
H679     H      0.119580000000     0.776970000000     0.735080000000    -0.00556068 
H680     H      0.971390000000     0.712230000000     0.656520000000     0.040617   
H681     H      0.975730000000     0.753960000000     0.651310000000     0.0395444  
H682     H      0.057670000000     0.770760000000     0.671520000000     0.0478509  
H683     H      0.075700000000     0.764280000000     0.785380000000     0.0881994  
H684     H      0.927960000000     0.691220000000     0.709940000000     0.0419419  
N1       N      0.682400000000     0.922440000000     0.799390000000    -0.199955   
N2       N      0.698260000000     0.971280000000     0.771060000000    -0.103498   
N3       N      0.738550000000     0.054990000000     0.675660000000    -0.1127     
N4       N      0.771940000000     0.103150000000     0.647270000000    -0.170717   
N5       N      0.992060000000     0.435230000000     0.498460000000    -0.198789   
N6       N      0.967600000000     0.384270000000     0.522290000000    -0.103697   
N7       N      0.913330000000     0.294510000000     0.605120000000    -0.112431   
N8       N      0.877620000000     0.245070000000     0.626970000000    -0.168895   
N9       N      0.149190000000     0.776610000000     0.328080000000    -0.196904   
N10      N      0.125670000000     0.728530000000     0.360330000000    -0.103316   
N11      N      0.076910000000     0.624760000000     0.402980000000    -0.11242    
N12      N      0.055240000000     0.577330000000     0.437300000000    -0.170817   
N13      N      0.634990000000     0.780670000000     0.851750000000    -0.198135   
N14      N      0.619200000000     0.732170000000     0.880720000000    -0.103631   
N15      N      0.576630000000     0.626650000000     0.908310000000    -0.112231   
N16      N      0.552110000000     0.576580000000     0.933680000000    -0.171082   
N17      N      0.222460000000     0.922870000000     0.289240000000    -0.198264   
N18      N      0.244070000000     0.969600000000     0.252210000000    -0.103154   
N19      N      0.278400000000     0.041960000000     0.139310000000    -0.112691   
N20      N      0.302020000000     0.088730000000     0.102950000000    -0.169656   
N21      N      0.476530000000     0.429080000000     0.960210000000    -0.20007    
N22      N      0.449190000000     0.377790000000     0.982410000000    -0.103626   
N23      N      0.401690000000     0.288240000000     0.067430000000    -0.112452   
N24      N      0.375620000000     0.237120000000     0.089570000000    -0.169771   
N25      N      0.662590000000     0.814530000000     0.425690000000    -0.19909    
N26      N      0.661810000000     0.812120000000     0.501020000000    -0.103252   
N27      N      0.658810000000     0.833910000000     0.647940000000    -0.111971   
N28      N      0.657760000000     0.837280000000     0.722510000000    -0.168337   
N29      N      0.656670000000     0.839940000000     0.221980000000    -0.198088   
N30      N      0.657750000000     0.844150000000     0.147300000000    -0.103573   
N31      N      0.659840000000     0.869100000000     0.000570000000    -0.112692   
N32      N      0.660370000000     0.868160000000     0.925560000000    -0.170348   
N33      N      0.688430000000     0.785920000000     0.296980000000    -0.196366   
N34      N      0.707850000000     0.759410000000     0.260560000000    -0.103102   
N35      N      0.763710000000     0.715340000000     0.208870000000    -0.112252   
N36      N      0.795200000000     0.702560000000     0.171410000000    -0.171483   
N37      N      0.548380000000     0.972110000000     0.494490000000    -0.199787   
N38      N      0.572490000000     0.946400000000     0.467800000000    -0.103766   
N39      N      0.610000000000     0.899330000000     0.374690000000    -0.112346   
N40      N      0.630110000000     0.870390000000     0.346720000000    -0.169029   
N41      N      0.026950000000     0.546430000000     0.869190000000    -0.196551   
N42      N      0.027300000000     0.549160000000     0.793870000000    -0.102658   
N43      N      0.026570000000     0.527490000000     0.645940000000    -0.111425   
N44      N      0.027300000000     0.524030000000     0.571370000000    -0.169218   
N45      N      0.024170000000     0.517960000000     0.073640000000    -0.196708   
N46      N      0.022240000000     0.512900000000     0.148400000000    -0.103108   
N47      N      0.019350000000     0.486620000000     0.294820000000    -0.112458   
N48      N      0.019330000000     0.487160000000     0.369860000000    -0.170923   
N49      N      0.999570000000     0.576900000000     0.995550000000    -0.196583   
N50      N      0.980450000000     0.605530000000     0.027050000000    -0.103181   
N51      N      0.923410000000     0.651470000000     0.064790000000    -0.112517   
N52      N      0.890830000000     0.664930000000     0.097820000000    -0.171712   
N53      N      0.344510000000     0.160410000000     0.991700000000    -0.197256   
N54      N      0.351090000000     0.170480000000     0.918740000000    -0.103111   
N55      N      0.342370000000     0.172430000000     0.768390000000    -0.112079   
N56      N      0.336420000000     0.168710000000     0.694540000000    -0.170504   
N57      N      0.332950000000     0.166050000000     0.198720000000    -0.198629   
N58      N      0.322360000000     0.162230000000     0.271990000000    -0.103039   
N59      N      0.305690000000     0.173100000000     0.419030000000    -0.1121     
N60      N      0.305210000000     0.173780000000     0.493840000000    -0.171573   
N61      N      0.479570000000     0.048450000000     0.534120000000    -0.197479   
N62      N      0.453670000000     0.074590000000     0.550080000000    -0.103398   
N63      N      0.392530000000     0.120230000000     0.546190000000    -0.112234   
N64      N      0.362510000000     0.141540000000     0.563500000000    -0.171543   
N65      N      0.051850000000     0.486150000000     0.951820000000    -0.196359   
N66      N      0.071900000000     0.454370000000     0.936640000000    -0.103104   
N67      N      0.114180000000     0.400730000000     0.869170000000    -0.111862   
N68      N      0.136230000000     0.371450000000     0.851210000000    -0.169738   
N69      N      0.280520000000     0.200530000000     0.621870000000    -0.200482   
N70      N      0.254560000000     0.222520000000     0.654450000000    -0.103912   
N71      N      0.217870000000     0.264760000000     0.757060000000    -0.112679   
N72      N      0.197310000000     0.291610000000     0.790520000000    -0.169627   
N73      N      0.499940000000     0.494770000000     0.545080000000    -0.19952    
N74      N      0.491660000000     0.490050000000     0.619620000000    -0.103667   
N75      N      0.504830000000     0.501700000000     0.770390000000    -0.112122   
N76      N      0.506490000000     0.498390000000     0.845030000000    -0.17017    
N77      N      0.551010000000     0.531450000000     0.349750000000    -0.199339   
N78      N      0.553090000000     0.532910000000     0.274400000000    -0.103386   
N79      N      0.528310000000     0.510310000000     0.127380000000    -0.112098   
N80      N      0.523380000000     0.508610000000     0.052600000000    -0.169644   
N81      N      0.833570000000     0.178460000000     0.740830000000    -0.199354   
N82      N      0.838640000000     0.181220000000     0.815670000000    -0.103611   
N83      N      0.869850000000     0.207250000000     0.959700000000    -0.112441   
N84      N      0.872210000000     0.209630000000     0.034550000000    -0.171032   
N85      N      0.814750000000     0.167850000000     0.533820000000    -0.201224   
N86      N      0.816500000000     0.170140000000     0.458740000000    -0.103919   
N87      N      0.850890000000     0.196930000000     0.316240000000    -0.112634   
N88      N      0.857170000000     0.200810000000     0.241920000000    -0.170786   
N89      N      0.158020000000     0.346490000000     0.723010000000    -0.201485   
N90      N      0.158890000000     0.352500000000     0.648450000000    -0.1034     
N91      N      0.180770000000     0.352270000000     0.501220000000    -0.112443   
N92      N      0.181040000000     0.348780000000     0.426710000000    -0.171525   
N93      N      0.174820000000     0.316390000000     0.920610000000    -0.201803   
N94      N      0.178390000000     0.315000000000     0.995420000000    -0.103064   
N95      N      0.176020000000     0.329340000000     0.145630000000    -0.112093   
N96      N      0.182340000000     0.338210000000     0.219250000000    -0.170634   
N97      N      0.936340000000     0.243370000000     0.150630000000    -0.200487   
N98      N      0.984320000000     0.265990000000     0.182280000000    -0.103977   
N99      N      0.061780000000     0.295730000000     0.285560000000    -0.113137   
N100     N      0.109330000000     0.314270000000     0.316690000000    -0.171835   
N101     N      0.254670000000     0.374030000000     0.331340000000    -0.197541   
N102     N      0.304490000000     0.396140000000     0.354320000000    -0.103464   
N103     N      0.409730000000     0.447900000000     0.377160000000    -0.112607   
N104     N      0.458310000000     0.474940000000     0.406170000000    -0.170013   
N105     N      0.541040000000     0.028660000000     0.913650000000    -0.19909    
N106     N      0.548470000000     0.029380000000     0.839320000000    -0.102734   
N107     N      0.537890000000     0.012210000000     0.688770000000    -0.111663   
N108     N      0.528370000000     0.010070000000     0.615140000000    -0.170098   
N109     N      0.500760000000     0.009170000000     0.411330000000    -0.194571   
N110     N      0.498810000000     0.005110000000     0.336880000000    -0.102394   
N111     N      0.487520000000     0.003810000000     0.185960000000    -0.111671   
N112     N      0.495430000000     0.008150000000     0.111820000000    -0.169031   
N113     N      0.588590000000     0.057230000000     0.042990000000    -0.196371   
N114     N      0.640420000000     0.084890000000     0.057140000000    -0.103018   
N115     N      0.738440000000     0.137150000000     0.116800000000    -0.112573   
N116     N      0.790560000000     0.165200000000     0.128220000000    -0.171035   
N117     N      0.196630000000     0.859330000000     0.410190000000    -0.1978     
N118     N      0.201980000000     0.855610000000     0.483850000000    -0.102473   
N119     N      0.221360000000     0.859820000000     0.633720000000    -0.111764   
N120     N      0.217500000000     0.854470000000     0.708440000000    -0.171412   
N121     N      0.169010000000     0.828350000000     0.905350000000    -0.198706   
N122     N      0.160210000000     0.826170000000     0.979520000000    -0.102973   
N123     N      0.173250000000     0.841590000000     0.129630000000    -0.111913   
N124     N      0.175460000000     0.840410000000     0.204230000000    -0.168328   
N125     N      0.448580000000     0.979450000000     0.981080000000    -0.197971   
N126     N      0.398980000000     0.950800000000     0.955180000000    -0.103294   
N127     N      0.311880000000     0.902580000000     0.867810000000    -0.112267   
N128     N      0.262700000000     0.877150000000     0.840640000000    -0.169258   
N129     N      0.839060000000     0.682290000000     0.735250000000    -0.196186   
N130     N      0.838090000000     0.685000000000     0.810080000000    -0.103255   
N131     N      0.821440000000     0.686510000000     0.959560000000    -0.112762   
N132     N      0.825050000000     0.686340000000     0.034660000000    -0.171013   
N133     N      0.876670000000     0.685720000000     0.534510000000    -0.199402   
N134     N      0.881070000000     0.685900000000     0.459230000000    -0.103735   
N135     N      0.862040000000     0.683080000000     0.309880000000    -0.111935   
N136     N      0.859140000000     0.681960000000     0.235050000000    -0.170267   
N137     N      0.592910000000     0.551650000000     0.488140000000    -0.195381   
N138     N      0.639080000000     0.578520000000     0.524340000000    -0.102892   
N139     N      0.741400000000     0.631820000000     0.566270000000    -0.111686   
N140     N      0.788240000000     0.653210000000     0.600210000000    -0.167651   
N141     N      0.124710000000     0.806550000000     0.769730000000    -0.197735   
N142     N      0.077320000000     0.782950000000     0.736430000000    -0.103686   
N143     N      0.973880000000     0.735550000000     0.700670000000    -0.112205   
N144     N      0.926320000000     0.714010000000     0.668750000000    -0.16985    
Ni1      Ni     0.854770000000     0.663090000000     0.637710000000     1.0095     
Ni2      Ni     0.859700000000     0.704220000000     0.631640000000     1.00869    
Ni3      Ni     0.193490000000     0.822130000000     0.806560000000     1.03328    
Ni4      Ni     0.193160000000     0.861000000000     0.807100000000     0.993664   
Ni5      Ni     0.519440000000     0.999390000000     0.014020000000     1.00788    
Ni6      Ni     0.517400000000     0.037310000000     0.011670000000     1.03239    
Ni7      Ni     0.179530000000     0.323290000000     0.325600000000     1.01533    
Ni8      Ni     0.184490000000     0.364480000000     0.320240000000     1.00092    
Ni9      Ni     0.864400000000     0.185460000000     0.137920000000     1.00051    
Ni10     Ni     0.862630000000     0.223590000000     0.138230000000     1.01705    
Ni11     Ni     0.527650000000     0.494830000000     0.445860000000     1.04543    
Ni12     Ni     0.523310000000     0.531430000000     0.448980000000     0.990843   
Ni13     Ni     0.186800000000     0.349870000000     0.822510000000     1.03289    
Ni14     Ni     0.146710000000     0.312860000000     0.820820000000     1.00079    
Ni15     Ni     0.339350000000     0.191600000000     0.591350000000     0.999445   
Ni16     Ni     0.303980000000     0.150250000000     0.596040000000     1.02288    
Ni17     Ni     0.046640000000     0.549200000000     0.974210000000     1.02143    
Ni18     Ni     0.005100000000     0.514870000000     0.968430000000     1.0353     
Ni19     Ni     0.679540000000     0.845730000000     0.325610000000     1.03609    
Ni20     Ni     0.638810000000     0.809680000000     0.322480000000     1.00517    
Ni21     Ni     0.858540000000     0.705550000000     0.133010000000     0.99878    
Ni22     Ni     0.827390000000     0.661970000000     0.135730000000     0.998041   
Ni23     Ni     0.533120000000     0.029690000000     0.509980000000     1.01034    
Ni24     Ni     0.494850000000     0.991080000000     0.517340000000     1.03521    
Ni25     Ni     0.319760000000     0.162870000000     0.091760000000     1.00339    
Ni26     Ni     0.358000000000     0.162880000000     0.098860000000     1.02858    
Ni27     Ni     0.496000000000     0.503980000000     0.951660000000     0.998749   
Ni28     Ni     0.533410000000     0.502190000000     0.946020000000     1.01205    
Ni29     Ni     0.166850000000     0.850100000000     0.310120000000     1.00803    
Ni30     Ni     0.204570000000     0.848930000000     0.304520000000     1.03022    
Ni31     Ni     0.003890000000     0.505060000000     0.468170000000     1.00048    
Ni32     Ni     0.043930000000     0.508630000000     0.472120000000     1.0114     
Ni33     Ni     0.809680000000     0.180760000000     0.639730000000     1.01101    
Ni34     Ni     0.839750000000     0.167450000000     0.634570000000     1.02071    
Ni35     Ni     0.637570000000     0.846880000000     0.822680000000     1.01171    
Ni36     Ni     0.679610000000     0.855800000000     0.826310000000     1.01694    
O1       O      0.864890000000     0.665630000000     0.588870000000    -0.406082   
O2       O      0.844790000000     0.663200000000     0.686120000000    -0.450328   
O3       O      0.820990000000     0.649610000000     0.622170000000    -0.439481   
O4       O      0.889000000000     0.679280000000     0.652780000000    -0.445934   
O5       O      0.893550000000     0.717700000000     0.646990000000    -0.44634    
O6       O      0.825400000000     0.688000000000     0.616710000000    -0.439671   
O7       O      0.849710000000     0.701760000000     0.680460000000    -0.410276   
O8       O      0.869660000000     0.704100000000     0.583280000000    -0.452146   
O9       O      0.182310000000     0.817340000000     0.854880000000    -0.401272   
O10      O      0.204570000000     0.829420000000     0.758230000000    -0.449068   
O11      O      0.227450000000     0.840780000000     0.822770000000    -0.439767   
O12      O      0.159570000000     0.806080000000     0.790290000000    -0.407688   
O13      O      0.159770000000     0.842650000000     0.788790000000    -0.452917   
O14      O      0.226600000000     0.876810000000     0.825100000000    -0.448564   
O15      O      0.206060000000     0.866650000000     0.759530000000    -0.449471   
O16      O      0.180340000000     0.852770000000     0.854700000000    -0.451903   
O17      O      0.531420000000     0.006160000000     0.966000000000    -0.405491   
O18      O      0.507380000000     0.995180000000     0.061940000000    -0.448245   
O19      O      0.485620000000     0.981840000000     0.997150000000    -0.449401   
O20      O      0.553130000000     0.019440000000     0.030580000000    -0.44551    
O21      O      0.551800000000     0.055120000000     0.025980000000    -0.409113   
O22      O      0.483190000000     0.017000000000     0.997460000000    -0.406786   
O23      O      0.507540000000     0.031760000000     0.060610000000    -0.439369   
O24      O      0.527320000000     0.040330000000     0.962850000000    -0.44549    
O25      O      0.177450000000     0.326390000000     0.375940000000    -0.450319   
O26      O      0.182000000000     0.322890000000     0.274980000000    -0.444917   
O27      O      0.215170000000     0.339260000000     0.329230000000    -0.414795   
O28      O      0.144180000000     0.310100000000     0.321560000000    -0.449633   
O29      O      0.148850000000     0.348700000000     0.319360000000    -0.450909   
O30      O      0.219830000000     0.377600000000     0.321750000000    -0.453679   
O31      O      0.184320000000     0.360390000000     0.269640000000    -0.449026   
O32      O      0.184190000000     0.365710000000     0.371120000000    -0.451032   
O33      O      0.868320000000     0.189040000000     0.087350000000    -0.450942   
O34      O      0.860780000000     0.184630000000     0.188580000000    -0.450669   
O35      O      0.828760000000     0.167540000000     0.132580000000    -0.449626   
O36      O      0.899770000000     0.205760000000     0.143370000000    -0.456152   
O37      O      0.898310000000     0.241440000000     0.143930000000    -0.403748   
O38      O      0.827160000000     0.203210000000     0.132750000000    -0.448894   
O39      O      0.858800000000     0.220090000000     0.188780000000    -0.444284   
O40      O      0.866450000000     0.224560000000     0.087600000000    -0.446462   
O41      O      0.540690000000     0.505370000000     0.398740000000    -0.399062   
O42      O      0.514610000000     0.486860000000     0.493260000000    -0.405851   
O43      O      0.494350000000     0.477050000000     0.426840000000    -0.442492   
O44      O      0.560500000000     0.514930000000     0.465150000000    -0.394325   
O45      O      0.556650000000     0.549250000000     0.467780000000    -0.450146   
O46      O      0.490450000000     0.511360000000     0.429860000000    -0.450562   
O47      O      0.510420000000     0.520960000000     0.496260000000    -0.452091   
O48      O      0.536190000000     0.539280000000     0.401410000000    -0.452041   
O49      O      0.189910000000     0.340850000000     0.870280000000    -0.408677   
O50      O      0.180990000000     0.356410000000     0.774630000000    -0.407932   
O51      O      0.170740000000     0.367850000000     0.839310000000    -0.441045   
O52      O      0.200200000000     0.329490000000     0.805540000000    -0.440899   
O53      O      0.162980000000     0.294520000000     0.806490000000    -0.449751   
O54      O      0.133090000000     0.333630000000     0.835150000000    -0.450008   
O55      O      0.144520000000     0.320690000000     0.772090000000    -0.456226   
O56      O      0.151530000000     0.307590000000     0.869700000000    -0.45627    
O57      O      0.346560000000     0.188410000000     0.640080000000    -0.448582   
O58      O      0.329670000000     0.192100000000     0.543020000000    -0.449656   
O59      O      0.318240000000     0.204510000000     0.606350000000    -0.454924   
O60      O      0.358110000000     0.175930000000     0.576550000000    -0.449637   
O61      O      0.325400000000     0.137250000000     0.582980000000    -0.451339   
O62      O      0.284900000000     0.166040000000     0.608630000000    -0.407473   
O63      O      0.297760000000     0.152710000000     0.546840000000    -0.449809   
O64      O      0.312450000000     0.150520000000     0.645010000000    -0.446695   
O65      O      0.044670000000     0.540890000000     0.023840000000    -0.450474   
O66      O      0.045920000000     0.555050000000     0.924130000000    -0.398791   
O67      O      0.032580000000     0.570450000000     0.984110000000    -0.410673   
O68      O      0.057880000000     0.525740000000     0.964170000000    -0.445163   
O69      O      0.019110000000     0.493690000000     0.958450000000    -0.402681   
O70      O      0.993830000000     0.538130000000     0.979110000000    -0.453854   
O71      O      0.006920000000     0.523320000000     0.918970000000    -0.446667   
O72      O      0.005850000000     0.508870000000     0.018290000000    -0.407619   
O73      O      0.676640000000     0.850870000000     0.276000000000    -0.453681   
O74      O      0.679940000000     0.838000000000     0.374950000000    -0.400327   
O75      O      0.692350000000     0.823950000000     0.313600000000    -0.411203   
O76      O      0.664030000000     0.865320000000     0.337110000000    -0.446872   
O77      O      0.625980000000     0.831630000000     0.334010000000    -0.441502   
O78      O      0.654390000000     0.790060000000     0.310940000000    -0.44967    
O79      O      0.641730000000     0.804650000000     0.372260000000    -0.452388   
O80      O      0.638530000000     0.817240000000     0.272950000000    -0.41377    
O81      O      0.866440000000     0.702790000000     0.181570000000    -0.447825   
O82      O      0.848350000000     0.705560000000     0.084670000000    -0.447391   
O83      O      0.833830000000     0.713260000000     0.149490000000    -0.450982   
O84      O      0.881340000000     0.694950000000     0.116910000000    -0.449227   
O85      O      0.852130000000     0.654260000000     0.119420000000    -0.450828   
O86      O      0.804560000000     0.672570000000     0.151710000000    -0.44854    
O87      O      0.819510000000     0.664750000000     0.087130000000    -0.447691   
O88      O      0.837400000000     0.662030000000     0.184240000000    -0.445609   
O89      O      0.539210000000     0.028040000000     0.559650000000    -0.446971   
O90      O      0.524610000000     0.028670000000     0.460710000000    -0.444537   
O91      O      0.515210000000     0.047070000000     0.520690000000    -0.407899   
O92      O      0.548450000000     0.009730000000     0.499880000000    -0.454506   
O93      O      0.512990000000     0.973720000000     0.508710000000    -0.405188   
O94      O      0.479240000000     0.010970000000     0.525540000000    -0.449146   
O95      O      0.489710000000     0.991670000000     0.467190000000    -0.403636   
O96      O      0.502520000000     0.992980000000     0.566990000000    -0.448308   
O97      O      0.323080000000     0.159990000000     0.041680000000    -0.456761   
O98      O      0.319010000000     0.165860000000     0.142210000000    -0.458186   
O99      O      0.339010000000     0.199020000000     0.088130000000    -0.450694   
O100     O      0.303000000000     0.126690000000     0.096130000000    -0.44974    
O101     O      0.338830000000     0.126610000000     0.100270000000    -0.438006   
O102     O      0.374650000000     0.199180000000     0.096940000000    -0.440667   
O103     O      0.353590000000     0.163680000000     0.149260000000    -0.408357   
O104     O      0.359800000000     0.162010000000     0.048020000000    -0.411791   
O105     O      0.501950000000     0.507590000000     0.002040000000    -0.44717    
O106     O      0.492680000000     0.500620000000     0.900910000000    -0.44801    
O107     O      0.478630000000     0.467800000000     0.956720000000    -0.453758   
O108     O      0.515710000000     0.539870000000     0.945930000000    -0.451221   
O109     O      0.550830000000     0.538440000000     0.940950000000    -0.447897   
O110     O      0.513560000000     0.466190000000     0.951340000000    -0.406017   
O111     O      0.527570000000     0.498790000000     0.895630000000    -0.44444    
O112     O      0.536680000000     0.505460000000     0.996760000000    -0.441136   
O113     O      0.173260000000     0.854650000000     0.360290000000    -0.450309   
O114     O      0.162910000000     0.845400000000     0.259640000000    -0.442344   
O115     O      0.149960000000     0.814160000000     0.317220000000    -0.414625   
O116     O      0.186250000000     0.886020000000     0.302660000000    -0.451656   
O117     O      0.221180000000     0.884630000000     0.295450000000    -0.39677    
O118     O      0.185450000000     0.813290000000     0.314270000000    -0.452168   
O119     O      0.197230000000     0.842460000000     0.254810000000    -0.443961   
O120     O      0.209540000000     0.855630000000     0.354480000000    -0.415145   
O121     O      0.002800000000     0.495180000000     0.419510000000    -0.449791   
O122     O      0.007400000000     0.514760000000     0.517250000000    -0.448212   
O123     O      0.020570000000     0.540010000000     0.453920000000    -0.448329   
O124     O      0.989880000000     0.470460000000     0.482400000000    -0.454869   
O125     O      0.027160000000     0.473530000000     0.485770000000    -0.405741   
O126     O      0.057980000000     0.543300000000     0.457930000000    -0.449311   
O127     O      0.044850000000     0.518120000000     0.521030000000    -0.440742   
O128     O      0.040470000000     0.499090000000     0.422950000000    -0.445942   
O129     O      0.815400000000     0.183000000000     0.690080000000    -0.453803   
O130     O      0.806100000000     0.177810000000     0.589010000000    -0.409761   
O131     O      0.784780000000     0.145650000000     0.644710000000    -0.446482   
O132     O      0.836460000000     0.214860000000     0.634440000000    -0.441116   
O133     O      0.864660000000     0.202550000000     0.629720000000    -0.443456   
O134     O      0.813000000000     0.133380000000     0.639680000000    -0.448122   
O135     O      0.834010000000     0.165120000000     0.584380000000    -0.457763   
O136     O      0.843210000000     0.170220000000     0.685180000000    -0.409391   
O137     O      0.638100000000     0.839060000000     0.773360000000    -0.440863   
O138     O      0.639730000000     0.855150000000     0.872210000000    -0.446216   
O139     O      0.650530000000     0.881900000000     0.810580000000    -0.452479   
O140     O      0.627470000000     0.812620000000     0.835230000000    -0.410086   
O141     O      0.666700000000     0.820810000000     0.838320000000    -0.453754   
O142     O      0.689710000000     0.890070000000     0.814150000000    -0.408238   
O143     O      0.679090000000     0.863680000000     0.875540000000    -0.447213   
O144     O      0.677520000000     0.847770000000     0.776710000000    -0.441983   


