data_structure

_audit_creation_method RASPA-1.0
_audit_creation_date 2023-5-25
_audit_author_name 'Poobodin Mano'

_cell_length_a    38.0364
_cell_length_b    38.065
_cell_length_c    37.9683
_cell_angle_alpha 90
_cell_angle_beta  90
_cell_angle_gamma 90
_cell_volume      54972.6

_symmetry_cell_setting          triclinic
_symmetry_space_group_name_Hall 'P 1'
_symmetry_space_group_name_H-M  'P 1'
_symmetry_Int_Tables_number     1

_symmetry_equiv_pos_as_xyz 'x,y,z'

loop_
_atom_site_label
_atom_site_type_symbol
_atom_site_fract_x
_atom_site_fract_y
_atom_site_fract_z
_atom_site_charge
C1       C      0.995580000000     0.930650000000     0.502650000000     0.430287   
C2       C      0.992730000000     0.064530000000     0.495390000000     0.426914   
C3       C      0.060380000000     0.999540000000     0.505360000000     0.427908   
C4       C      0.926780000000     0.996030000000     0.492620000000     0.427702   
C5       C      0.974890000000     0.430360000000     0.473900000000     0.428906   
C6       C      0.979830000000     0.562720000000     0.494540000000     0.4268     
C7       C      0.977060000000     0.507600000000     0.418440000000     0.429116   
C8       C      0.977500000000     0.485510000000     0.551010000000     0.429064   
C9       C      0.559390000000     0.983090000000     0.493710000000     0.429063   
C10      C      0.426910000000     0.982060000000     0.514670000000     0.426573   
C11      C      0.483850000000     0.985460000000     0.437820000000     0.427581   
C12      C      0.501990000000     0.979490000000     0.570850000000     0.426237   
C13      C      0.512670000000     0.006180000000     0.072760000000     0.427563   
C14      C      0.510160000000     0.986050000000     0.939860000000     0.429289   
C15      C      0.509430000000     0.062480000000     0.997710000000     0.428418   
C16      C      0.513260000000     0.929570000000     0.015890000000     0.426621   
C17      C      0.982650000000     0.483180000000     0.919910000000     0.426679   
C18      C      0.002520000000     0.491330000000     0.052680000000     0.428155   
C19      C      0.925990000000     0.487070000000     0.997630000000     0.429727   
C20      C      0.058400000000     0.487690000000     0.975040000000     0.429433   
C21      C      0.490500000000     0.429780000000     0.980660000000     0.427534   
C22      C      0.493290000000     0.563670000000     0.989250000000     0.428569   
C23      C      0.425840000000     0.498250000000     0.976270000000     0.425841   
C24      C      0.558930000000     0.494290000000     0.993570000000     0.427197   
C25      C      0.835730000000     0.452150000000     0.010740000000    -0.0332158  
C26      C      0.655120000000     0.505890000000     0.977470000000    -0.0308883  
C27      C      0.608640000000     0.475140000000     0.030300000000    -0.00555226 
C28      C      0.617630000000     0.496250000000     0.966880000000    -0.00413181 
C29      C      0.725980000000     0.461620000000     0.985420000000    -0.0545648  
C30      C      0.758850000000     0.504550000000     0.035120000000    -0.0542689  
C31      C      0.705320000000     0.482050000000     0.008130000000     0.060713   
C32      C      0.647250000000     0.484550000000     0.036850000000    -0.0306037  
C33      C      0.779470000000     0.483660000000     0.012800000000     0.0596803  
C34      C      0.832200000000     0.513280000000     0.993110000000    -0.0598928  
C35      C      0.762640000000     0.462880000000     0.987120000000    -0.055943   
C36      C      0.870590000000     0.520370000000     0.003750000000     0.0848623  
C37      C      0.874330000000     0.455760000000     0.021380000000    -0.00308756 
C38      C      0.722180000000     0.504370000000     0.032460000000    -0.0567106  
C39      C      0.872490000000     0.539410000000     0.039380000000    -0.18515    
C40      C      0.149530000000     0.453990000000     0.964970000000    -0.0332893  
C41      C      0.329730000000     0.510310000000     0.993820000000    -0.0309646  
C42      C      0.375700000000     0.484630000000     0.937910000000    -0.00574208 
C43      C      0.367380000000     0.500160000000     0.003230000000    -0.00401932 
C44      C      0.259660000000     0.466570000000     0.985660000000    -0.0542843  
C45      C      0.224600000000     0.508170000000     0.936390000000    -0.0541311  
C46      C      0.279300000000     0.487560000000     0.962540000000     0.0605906  
C47      C      0.336800000000     0.493850000000     0.932910000000    -0.0305839  
C48      C      0.205000000000     0.486800000000     0.959200000000     0.0596252  
C49      C      0.151480000000     0.516570000000     0.976640000000    -0.0600151  
C50      C      0.222960000000     0.466710000000     0.984680000000    -0.0558337  
C51      C      0.112910000000     0.521630000000     0.965530000000     0.0850051  
C52      C      0.110790000000     0.455530000000     0.954330000000    -0.00307206 
C53      C      0.261280000000     0.509220000000     0.938420000000    -0.0565515  
C54      C      0.110450000000     0.537070000000     0.928220000000    -0.185309   
C55      C      0.514790000000     0.657200000000     0.970640000000    -0.0333755  
C56      C      0.478690000000     0.839510000000     0.022700000000    -0.0303661  
C57      C      0.546730000000     0.873920000000     0.014810000000    -0.00533835 
C58      C      0.484500000000     0.875940000000     0.038540000000    -0.00601721 
C59      C      0.528320000000     0.758630000000     0.032240000000    -0.0547391  
C60      C      0.480360000000     0.734980000000     0.981830000000    -0.0544577  
C61      C      0.508270000000     0.783150000000     0.013410000000     0.0604827  
C62      C      0.538220000000     0.837670000000     0.999390000000    -0.0307261  
C63      C      0.499070000000     0.710420000000     0.001950000000     0.0595427  
C64      C      0.491100000000     0.652810000000     0.029720000000    -0.0593441  
C65      C      0.524370000000     0.722620000000     0.026180000000    -0.0559628  
C66      C      0.475550000000     0.616210000000     0.022800000000     0.0828811  
C67      C      0.499960000000     0.621230000000     0.960240000000    -0.00222918 
C68      C      0.485320000000     0.771010000000     0.986910000000    -0.0567461  
C69      C      0.435540000000     0.618260000000     0.017700000000    -0.18476    
C70      C      0.472190000000     0.152830000000     0.988060000000    -0.0329765  
C71      C      0.512830000000     0.338840000000     0.953700000000    -0.0309654  
C72      C      0.468150000000     0.374210000000     0.005140000000    -0.00561669 
C73      C      0.498750000000     0.375740000000     0.945670000000    -0.00457785 
C74      C      0.477630000000     0.259760000000     0.955490000000    -0.0547043  
C75      C      0.522080000000     0.232670000000     0.007370000000    -0.0539126  
C76      C      0.495020000000     0.282850000000     0.978370000000     0.0609689  
C77      C      0.483140000000     0.337390000000     0.010280000000    -0.0303044  
C78      C      0.503000000000     0.209520000000     0.985960000000     0.0595659  
C79      C      0.534490000000     0.154810000000     0.975330000000    -0.0596741  
C80      C      0.482030000000     0.223430000000     0.958690000000    -0.0556344  
C81      C      0.541200000000     0.118930000000     0.992900000000     0.0847325  
C82      C      0.474950000000     0.116570000000     0.005060000000    -0.00316838 
C83      C      0.518770000000     0.269000000000     0.003240000000    -0.0568682  
C84      C      0.557810000000     0.123830000000     0.029500000000    -0.185063   
C85      C      0.534540000000     0.993850000000     0.845640000000    -0.0335613  
C86      C      0.502560000000     0.943190000000     0.662850000000    -0.0305127  
C87      C      0.510290000000     0.010620000000     0.626910000000    -0.00444248 
C88      C      0.489900000000     0.946380000000     0.624810000000    -0.00531428 
C89      C      0.481620000000     0.997600000000     0.739250000000    -0.054746   
C90      C      0.528350000000     0.951570000000     0.772220000000    -0.0543583  
C91      C      0.502880000000     0.975680000000     0.718610000000     0.0607795  
C92      C      0.522650000000     0.003320000000     0.664570000000    -0.0303995  
C93      C      0.506200000000     0.972600000000     0.792870000000     0.0596627  
C94      C      0.474570000000     0.972710000000     0.849340000000    -0.0595155  
C95      C      0.483660000000     0.996680000000     0.775990000000    -0.0560693  
C96      C      0.478750000000     0.962080000000     0.888220000000     0.0828653  
C97      C      0.542350000000     0.983320000000     0.883700000000    -0.00225853 
C98      C      0.527320000000     0.953510000000     0.735480000000    -0.056662   
C99      C      0.482250000000     0.922050000000     0.891880000000    -0.184747   
C100     C      0.502780000000     0.966030000000     0.344920000000    -0.0330617  
C101     C      0.476180000000     0.016730000000     0.161390000000    -0.0303385  
C102     C      0.545150000000     0.007210000000     0.129210000000    -0.00413162 
C103     C      0.483460000000     0.031590000000     0.124830000000    -0.00510356 
C104     C      0.521340000000     0.027920000000     0.244210000000    -0.0552632  
C105     C      0.473280000000     0.976930000000     0.266140000000    -0.0539719  
C106     C      0.503350000000     0.008020000000     0.218940000000     0.0611345  
C107     C      0.535490000000     0.992960000000     0.165780000000    -0.0315152  
C108     C      0.489950000000     0.997990000000     0.291390000000     0.0589324  
C109     C      0.480080000000     0.025500000000     0.349160000000    -0.0589556  
C110     C      0.515320000000     0.022580000000     0.280140000000    -0.0553571  
C111     C      0.463520000000     0.018440000000     0.385450000000     0.0824692  
C112     C      0.486330000000     0.955660000000     0.380190000000    -0.00299676 
C113     C      0.480380000000     0.981280000000     0.230300000000    -0.0572892  
C114     C      0.423580000000     0.013560000000     0.382400000000    -0.184586   
C115     C      0.952300000000     0.493550000000     0.644850000000    -0.0334213  
C116     C      0.979760000000     0.444820000000     0.828710000000    -0.0306001  
C117     C      0.976390000000     0.513400000000     0.863130000000    -0.00418144 
C118     C      0.992180000000     0.447900000000     0.866850000000    -0.0053894  
C119     C      0.004760000000     0.497050000000     0.751650000000    -0.0545115  
C120     C      0.956830000000     0.452320000000     0.718630000000    -0.0543584  
C121     C      0.982450000000     0.476190000000     0.772280000000     0.0604153  
C122     C      0.963880000000     0.506110000000     0.825530000000    -0.0310204  
C123     C      0.979930000000     0.472330000000     0.698000000000     0.059466   
C124     C      0.011990000000     0.471490000000     0.641740000000    -0.059195   
C125     C      0.003120000000     0.495790000000     0.714900000000    -0.0558292  
C126     C      0.007920000000     0.460720000000     0.602880000000     0.0828405  
C127     C      0.944640000000     0.482870000000     0.606810000000    -0.00199647 
C128     C      0.957470000000     0.454670000000     0.755350000000    -0.0565475  
C129     C      0.003730000000     0.420750000000     0.599380000000    -0.184719   
C130     C      0.955410000000     0.495520000000     0.324820000000    -0.033317   
C131     C      0.004480000000     0.531840000000     0.140840000000    -0.0304556  
C132     C      0.005240000000     0.461550000000     0.110370000000    -0.00454463 
C133     C      0.020970000000     0.526010000000     0.104570000000    -0.0056796  
C134     C      0.017210000000     0.483210000000     0.223720000000    -0.0544735  
C135     C      0.967730000000     0.531970000000     0.247450000000    -0.054642   
C136     C      0.999140000000     0.503900000000     0.199120000000     0.0601587  
C137     C      0.988490000000     0.470230000000     0.145970000000    -0.0311098  
C138     C      0.986940000000     0.512350000000     0.272030000000     0.0595586  
C139     C      0.014430000000     0.519620000000     0.329770000000    -0.0591456  
C140     C      0.010690000000     0.486710000000     0.259740000000    -0.0560176  
C141     C      0.007490000000     0.533270000000     0.367140000000     0.082734   
C142     C      0.945430000000     0.508750000000     0.361640000000    -0.00254636 
C143     C      0.973150000000     0.527380000000     0.211310000000    -0.0563095  
C144     C      0.000760000000     0.573050000000     0.367060000000    -0.184795   
C145     C      0.154660000000     0.981850000000     0.487150000000    -0.0332164  
C146     C      0.337950000000     0.017610000000     0.530300000000    -0.0302657  
C147     C      0.370550000000     0.949870000000     0.515380000000    -0.00506566 
C148     C      0.375660000000     0.010700000000     0.542140000000    -0.00570906 
C149     C      0.257430000000     0.969420000000     0.545370000000    -0.0549606  
C150     C      0.230500000000     0.017680000000     0.496980000000    -0.0540973  
C151     C      0.280640000000     0.989270000000     0.524740000000     0.060604   
C152     C      0.333050000000     0.959520000000     0.504180000000    -0.0307987  
C153     C      0.207280000000     0.998690000000     0.518400000000     0.0591878  
C154     C      0.149360000000     0.003000000000     0.547030000000    -0.0589405  
C155     C      0.221060000000     0.973510000000     0.541870000000    -0.0558303  
C156     C      0.111970000000     0.017160000000     0.540720000000     0.0825653  
C157     C      0.118390000000     0.995850000000     0.477080000000    -0.00270423 
C158     C      0.266770000000     0.012600000000     0.499500000000    -0.0568008  
C159     C      0.112190000000     0.057410000000     0.537850000000    -0.184743   
C160     C      0.653720000000     0.959770000000     0.499640000000    -0.0335375  
C161     C      0.837060000000     0.994590000000     0.451500000000    -0.0312365  
C162     C      0.869070000000     0.993350000000     0.521390000000    -0.00433267 
C163     C      0.874850000000     0.007820000000     0.455800000000    -0.00491877 
C164     C      0.757980000000     0.016130000000     0.503360000000    -0.0541809  
C165     C      0.727190000000     0.968360000000     0.456880000000    -0.0544326  
C166     C      0.779580000000     0.995750000000     0.481510000000     0.060236   
C167     C      0.832350000000     0.979420000000     0.513130000000    -0.0309554  
C168     C      0.705620000000     0.989440000000     0.478080000000     0.0594834  
C169     C      0.648530000000     0.019310000000     0.477410000000    -0.0592052  
C170     C      0.721470000000     0.012550000000     0.502340000000    -0.055818   
C171     C      0.609830000000     0.014030000000     0.467190000000     0.0828861  
C172     C      0.615640000000     0.951150000000     0.489740000000    -0.00205548 
C173     C      0.763820000000     0.970870000000     0.458970000000    -0.0563719  
C174     C      0.605890000000     0.009060000000     0.427240000000    -0.184602   
C175     C      0.998210000000     0.838190000000     0.472020000000    -0.0333062  
C176     C      0.955350000000     0.655650000000     0.516140000000    -0.031116   
C177     C      0.014380000000     0.616390000000     0.486610000000    -0.00465028 
C178     C      0.948640000000     0.618900000000     0.501180000000    -0.00418288 
C179     C      0.965230000000     0.731690000000     0.480100000000    -0.0545771  
C180     C      0.011370000000     0.761760000000     0.528710000000    -0.0541946  
C181     C      0.985670000000     0.709840000000     0.501620000000     0.0604311  
C182     C      0.017150000000     0.653480000000     0.501560000000    -0.0307621  
C183     C      0.992460000000     0.783540000000     0.505760000000     0.0596655  
C184     C      0.977150000000     0.839570000000     0.532310000000    -0.0598983  
C185     C      0.967930000000     0.768210000000     0.482570000000    -0.056076   
C186     C      0.992240000000     0.876610000000     0.538570000000     0.0850122  
C187     C      0.013620000000     0.875100000000     0.474780000000    -0.00261718 
C188     C      0.007560000000     0.725290000000     0.527280000000    -0.0565364  
C189     C      0.026610000000     0.874820000000     0.559760000000    -0.185272   
C190     C      0.949370000000     0.338360000000     0.488500000000    -0.0331422  
C191     C      0.996220000000     0.153920000000     0.456080000000    -0.030856   
C192     C      0.984950000000     0.121670000000     0.524870000000    -0.00449234 
C193     C      0.011420000000     0.117520000000     0.463380000000    -0.00521909 
C194     C      0.005300000000     0.235430000000     0.505180000000    -0.0546808  
C195     C      0.959160000000     0.259770000000     0.453400000000    -0.0544616  
C196     C      0.987320000000     0.211180000000     0.484060000000     0.060498   
C197     C      0.970390000000     0.157690000000     0.514340000000    -0.0310625  
C198     C      0.978520000000     0.283990000000     0.473310000000     0.0596051  
C199     C      0.008690000000     0.340000000000     0.464700000000    -0.05919    
C200     C      0.000510000000     0.271500000000     0.500430000000    -0.0561141  
C201     C      0.003550000000     0.377210000000     0.449950000000     0.0828231  
C202     C      0.941070000000     0.375010000000     0.474080000000    -0.00274062 
C203     C      0.962910000000     0.223690000000     0.459100000000    -0.0566455  
C204     C      0.997300000000     0.376340000000     0.410020000000    -0.185133   
H1       H      0.707330000000     0.521530000000     0.049580000000     0.0394406  
H2       H      0.823420000000     0.431350000000     0.027250000000     0.0338779  
H3       H      0.816820000000     0.538080000000     0.995470000000     0.0398634  
H4       H      0.606420000000     0.446120000000     0.027830000000     0.0367444  
H5       H      0.875810000000     0.458200000000     0.050520000000     0.0330264  
H6       H      0.671850000000     0.504730000000     0.953420000000     0.033044   
H7       H      0.657890000000     0.466670000000     0.057440000000     0.0336717  
H8       H      0.607300000000     0.517160000000     0.949200000000     0.038536   
H9       H      0.881930000000     0.538290000000     0.983540000000     0.0189196  
H10      H      0.771370000000     0.521460000000     0.054330000000     0.041334   
H11      H      0.888290000000     0.431160000000     0.014060000000     0.0399103  
H12      H      0.713510000000     0.445080000000     0.965870000000     0.0431296  
H13      H      0.834740000000     0.443660000000     0.982710000000     0.0368678  
H14      H      0.593020000000     0.482980000000     0.053790000000     0.0399943  
H15      H      0.655970000000     0.533290000000     0.987760000000     0.0372616  
H16      H      0.648480000000     0.511970000000     0.046990000000     0.0354641  
H17      H      0.777530000000     0.447460000000     0.968440000000     0.0397188  
H18      H      0.831150000000     0.505070000000     0.964950000000     0.0436064  
H19      H      0.618240000000     0.471360000000     0.951530000000     0.0384411  
H20      H      0.858410000000     0.564940000000     0.037930000000     0.0611023  
H21      H      0.900320000000     0.544800000000     0.046390000000     0.0740662  
H22      H      0.860550000000     0.523280000000     0.060620000000     0.0717544  
H23      H      0.275240000000     0.526660000000     0.920850000000     0.0391709  
H24      H      0.162300000000     0.432020000000     0.950460000000     0.0340005  
H25      H      0.166160000000     0.541450000000     0.971910000000     0.0396385  
H26      H      0.378580000000     0.455570000000     0.936940000000     0.0371206  
H27      H      0.109100000000     0.455040000000     0.925100000000     0.0331655  
H28      H      0.313350000000     0.507360000000     0.017950000000     0.0325234  
H29      H      0.326080000000     0.477520000000     0.911110000000     0.0337336  
H30      H      0.377990000000     0.519950000000     0.022020000000     0.0357188  
H31      H      0.101130000000     0.541120000000     0.983940000000     0.0186623  
H32      H      0.211230000000     0.524480000000     0.917220000000     0.0411196  
H33      H      0.097530000000     0.431420000000     0.964140000000     0.0399101  
H34      H      0.272990000000     0.450380000000     0.004960000000     0.0429775  
H35      H      0.150860000000     0.448310000000     0.993690000000     0.0369433  
H36      H      0.390840000000     0.495420000000     0.915300000000     0.0395954  
H37      H      0.328570000000     0.538380000000     0.985570000000     0.0360296  
H38      H      0.334860000000     0.521980000000     0.925100000000     0.0347066  
H39      H      0.209010000000     0.450800000000     0.003650000000     0.039729   
H40      H      0.152810000000     0.511060000000     0.005440000000     0.0437136  
H41      H      0.367060000000     0.474390000000     0.017040000000     0.0389762  
H42      H      0.123910000000     0.562940000000     0.927100000000     0.0611684  
H43      H      0.082490000000     0.541070000000     0.920830000000     0.0743911  
H44      H      0.122740000000     0.519240000000     0.908600000000     0.0721973  
H45      H      0.470550000000     0.789120000000     0.970740000000     0.0391455  
H46      H      0.516170000000     0.673770000000     0.946510000000     0.0332628  
H47      H      0.475320000000     0.666520000000     0.050250000000     0.0404218  
H48      H      0.560790000000     0.870300000000     0.040230000000     0.0369705  
H49      H      0.475410000000     0.625200000000     0.944850000000     0.0353888  
H50      H      0.459110000000     0.825250000000     0.039130000000     0.0335459  
H51      H      0.562980000000     0.822110000000     0.998390000000     0.0329677  
H52      H      0.459590000000     0.891090000000     0.036700000000     0.0401906  
H53      H      0.480330000000     0.600230000000     0.046870000000     0.020965   
H54      H      0.461580000000     0.726080000000     0.962330000000     0.0417254  
H55      H      0.519250000000     0.607910000000     0.942720000000     0.0377664  
H56      H      0.546890000000     0.767530000000     0.051930000000     0.0429842  
H57      H      0.541970000000     0.654180000000     0.981160000000     0.03767    
H58      H      0.564710000000     0.887860000000     0.996420000000     0.0385354  
H59      H      0.467660000000     0.842870000000     0.995760000000     0.0357866  
H60      H      0.528140000000     0.840560000000     0.971990000000     0.0363835  
H61      H      0.540400000000     0.704550000000     0.041150000000     0.0395965  
H62      H      0.518170000000     0.649280000000     0.040300000000     0.0421186  
H63      H      0.490740000000     0.872810000000     0.066980000000     0.0354932  
H64      H      0.422840000000     0.629550000000     0.041500000000     0.0614708  
H65      H      0.424620000000     0.591520000000     0.013470000000     0.0713146  
H66      H      0.428810000000     0.634810000000     0.994560000000     0.0721079  
H67      H      0.533850000000     0.286010000000     0.020320000000     0.0398634  
H68      H      0.449850000000     0.167140000000     0.000430000000     0.0339115  
H69      H      0.558800000000     0.171060000000     0.976870000000     0.0397048  
H70      H      0.440410000000     0.371790000000     0.996230000000     0.0360838  
H71      H      0.473710000000     0.119730000000     0.034150000000     0.0337134  
H72      H      0.516610000000     0.324770000000     0.928270000000     0.0334144  
H73      H      0.464730000000     0.322110000000     0.027160000000     0.0340628  
H74      H      0.519330000000     0.390700000000     0.931240000000     0.0387878  
H75      H      0.560530000000     0.104520000000     0.976280000000     0.0182222  
H76      H      0.539140000000     0.222440000000     0.027780000000     0.0412639  
H77      H      0.451540000000     0.100980000000     0.997110000000     0.0399333  
H78      H      0.460090000000     0.270000000000     0.935510000000     0.0434103  
H79      H      0.466370000000     0.149390000000     0.959520000000     0.0362242  
H80      H      0.467830000000     0.387830000000     0.031040000000     0.040754   
H81      H      0.538850000000     0.340760000000     0.967040000000     0.0378017  
H82      H      0.508730000000     0.339760000000     0.024300000000     0.0368096  
H83      H      0.468000000000     0.206460000000     0.940700000000     0.0396983  
H84      H      0.528420000000     0.151000000000     0.946880000000     0.0432095  
H85      H      0.475490000000     0.373340000000     0.928080000000     0.0375869  
H86      H      0.582990000000     0.138470000000     0.027310000000     0.0613865  
H87      H      0.563530000000     0.097920000000     0.041640000000     0.0759026  
H88      H      0.539850000000     0.138530000000     0.047260000000     0.0722627  
H89      H      0.545170000000     0.937200000000     0.720530000000     0.0395443  
H90      H      0.559580000000     0.992500000000     0.830500000000     0.0333145  
H91      H      0.454380000000     0.955800000000     0.836520000000     0.0403946  
H92      H      0.485490000000     0.026060000000     0.627990000000     0.0386772  
H93      H      0.556660000000     0.957850000000     0.883700000000     0.0349728  
H94      H      0.486270000000     0.923020000000     0.676430000000     0.0337292  
H95      H      0.521840000000     0.028480000000     0.679510000000     0.033154   
H96      H      0.497340000000     0.921990000000     0.610490000000     0.0401806  
H97      H      0.454140000000     0.969830000000     0.902030000000     0.0206943  
H98      H      0.546620000000     0.933690000000     0.784760000000     0.0418445  
H99      H      0.560100000000     0.003420000000     0.895380000000     0.038631   
H100     H      0.463400000000     0.015540000000     0.726710000000     0.0434372  
H101     H      0.524850000000     0.021450000000     0.844680000000     0.0381495  
H102     H      0.530300000000     0.027170000000     0.613440000000     0.0380553  
H103     H      0.530340000000     0.933990000000     0.662620000000     0.0353688  
H104     H      0.550370000000     0.993840000000     0.664390000000     0.036753   
H105     H      0.467200000000     0.014410000000     0.790900000000     0.0398504  
H106     H      0.464780000000     0.000260000000     0.848600000000     0.0421723  
H107     H      0.460680000000     0.947740000000     0.624780000000     0.0371123  
H108     H      0.458600000000     0.908760000000     0.881060000000     0.0615594  
H109     H      0.484650000000     0.914760000000     0.920120000000     0.0712547  
H110     H      0.505870000000     0.912320000000     0.877680000000     0.0717728  
H111     H      0.467190000000     0.964340000000     0.211660000000     0.0400051  
H112     H      0.504230000000     0.942100000000     0.328120000000     0.0329757  
H113     H      0.464870000000     0.046260000000     0.335190000000     0.0401911  
H114     H      0.559190000000     0.032620000000     0.132460000000     0.0355243  
H115     H      0.461100000000     0.941800000000     0.375100000000     0.0345187  
H116     H      0.456340000000     0.033700000000     0.174630000000     0.0337041  
H117     H      0.559750000000     0.992370000000     0.182160000000     0.0332175  
H118     H      0.458950000000     0.030200000000     0.108940000000     0.0401042  
H119     H      0.467970000000     0.042300000000     0.401780000000     0.0205946  
H120     H      0.454550000000     0.957120000000     0.274350000000     0.0416762  
H121     H      0.504290000000     0.936840000000     0.393540000000     0.0382039  
H122     H      0.539890000000     0.047880000000     0.235960000000     0.0428307  
H123     H      0.530050000000     0.975860000000     0.349130000000     0.0362231  
H124     H      0.563370000000     0.988390000000     0.116190000000     0.0379743  
H125     H      0.464900000000     0.989950000000     0.158220000000     0.0374633  
H126     H      0.525420000000     0.965580000000     0.163370000000     0.0381518  
H127     H      0.529920000000     0.038300000000     0.298800000000     0.0387947  
H128     H      0.507160000000     0.035700000000     0.353560000000     0.0408605  
H129     H      0.490450000000     0.059830000000     0.127610000000     0.0339306  
H130     H      0.411230000000     0.037630000000     0.371400000000     0.0614905  
H131     H      0.412130000000     0.008720000000     0.408880000000     0.0702087  
H132     H      0.417070000000     0.990950000000     0.365090000000     0.071655   
H133     H      0.938870000000     0.439160000000     0.770230000000     0.0394988  
H134     H      0.927130000000     0.492670000000     0.659790000000     0.0332935  
H135     H      0.031810000000     0.454330000000     0.654790000000     0.0402968  
H136     H      0.002150000000     0.527190000000     0.861950000000     0.0372204  
H137     H      0.930090000000     0.457530000000     0.606870000000     0.0348171  
H138     H      0.994750000000     0.423290000000     0.815750000000     0.0334828  
H139     H      0.966500000000     0.530830000000     0.810070000000     0.0327537  
H140     H      0.982710000000     0.424510000000     0.881610000000     0.039965   
H141     H      0.032780000000     0.467950000000     0.589230000000     0.0207253  
H142     H      0.938090000000     0.434940000000     0.706070000000     0.0418057  
H143     H      0.927150000000     0.503070000000     0.594900000000     0.0385216  
H144     H      0.023450000000     0.514490000000     0.764190000000     0.0426474  
H145     H      0.962380000000     0.521020000000     0.645690000000     0.0380422  
H146     H      0.957400000000     0.531510000000     0.876060000000     0.0371386  
H147     H      0.951390000000     0.437590000000     0.828770000000     0.0353503  
H148     H      0.935590000000     0.498520000000     0.825620000000     0.0369236  
H149     H      0.020380000000     0.512770000000     0.700020000000     0.0394597  
H150     H      0.022220000000     0.498880000000     0.642380000000     0.0419843  
H151     H      0.021410000000     0.447000000000     0.867240000000     0.0361948  
H152     H      0.027090000000     0.407100000000     0.610400000000     0.0614623  
H153     H      0.001350000000     0.413390000000     0.571170000000     0.0708143  
H154     H      0.979880000000     0.411500000000     0.613500000000     0.0716718  
H155     H      0.957560000000     0.542860000000     0.193270000000     0.0390902  
H156     H      0.931170000000     0.494920000000     0.308390000000     0.0331408  
H157     H      0.034480000000     0.536460000000     0.316650000000     0.0405084  
H158     H      0.032120000000     0.451030000000     0.114960000000     0.0369959  
H159     H      0.930710000000     0.533840000000     0.358980000000     0.0347155  
H160     H      0.018350000000     0.553990000000     0.153990000000     0.0332675  
H161     H      0.990110000000     0.446400000000     0.162880000000     0.0327379  
H162     H      0.015890000000     0.549510000000     0.087960000000     0.0395912  
H163     H      0.031960000000     0.528880000000     0.382590000000     0.0208659  
H164     H      0.948620000000     0.551080000000     0.256410000000     0.0418395  
H165     H      0.927580000000     0.489230000000     0.374130000000     0.0370689  
H166     H      0.036510000000     0.464260000000     0.214840000000     0.0424729  
H167     H      0.965870000000     0.468240000000     0.326610000000     0.0366022  
H168     H      0.989410000000     0.440580000000     0.097530000000     0.0389861  
H169     H      0.976430000000     0.539270000000     0.137020000000     0.0357413  
H170     H      0.960210000000     0.476930000000     0.142360000000     0.0375139  
H171     H      0.024900000000     0.469940000000     0.277770000000     0.0390975  
H172     H      0.025600000000     0.492700000000     0.332170000000     0.0418676  
H173     H      0.049930000000     0.523740000000     0.107890000000     0.0353641  
H174     H      0.024060000000     0.587220000000     0.356590000000     0.0615779  
H175     H      0.995960000000     0.582330000000     0.394390000000     0.0694509  
H176     H      0.977540000000     0.579750000000     0.350660000000     0.072189   
H177     H      0.283760000000     0.027270000000     0.482060000000     0.0393682  
H178     H      0.171310000000     0.981760000000     0.463020000000     0.0329956  
H179     H      0.162450000000     0.018520000000     0.568150000000     0.0401146  
H180     H      0.369290000000     0.934250000000     0.540090000000     0.037171   
H181     H      0.121640000000     0.021120000000     0.462760000000     0.035453   
H182     H      0.325600000000     0.036410000000     0.549040000000     0.0337876  
H183     H      0.317130000000     0.934990000000     0.503400000000     0.0331058  
H184     H      0.390870000000     0.035540000000     0.539940000000     0.040523   
H185     H      0.096010000000     0.010290000000     0.564310000000     0.0198302  
H186     H      0.220320000000     0.036340000000     0.478010000000     0.0417015  
H187     H      0.105980000000     0.976830000000     0.458620000000     0.0380842  
H188     H      0.267630000000     0.950630000000     0.564190000000     0.0431061  
H189     H      0.152480000000     0.954280000000     0.496760000000     0.0370641  
H190     H      0.382470000000     0.933050000000     0.494600000000     0.0383462  
H191     H      0.338820000000     0.030020000000     0.503780000000     0.0361838  
H192     H      0.333380000000     0.971040000000     0.477200000000     0.0365392  
H193     H      0.204020000000     0.957310000000     0.557840000000     0.0391589  
H194     H      0.147110000000     0.975410000000     0.556530000000     0.0406553  
H195     H      0.375290000000     0.003180000000     0.570440000000     0.0359     
H196     H      0.122780000000     0.069280000000     0.562390000000     0.0617828  
H197     H      0.084980000000     0.067320000000     0.534030000000     0.0719162  
H198     H      0.128530000000     0.066120000000     0.515220000000     0.0720893  
H199     H      0.779470000000     0.953700000000     0.442600000000     0.0394753  
H200     H      0.669270000000     0.935030000000     0.498340000000     0.0334854  
H201     H      0.660700000000     0.039430000000     0.459930000000     0.0404696  
H202     H      0.866620000000     0.019770000000     0.533660000000     0.0384471  
H203     H      0.615500000000     0.936600000000     0.464350000000     0.0347969  
H204     H      0.824510000000     0.009190000000     0.429430000000     0.0338185  
H205     H      0.816110000000     0.981840000000     0.537400000000     0.0328779  
H206     H      0.890540000000     0.998880000000     0.432770000000     0.0398234  
H207     H      0.595690000000     0.038670000000     0.474160000000     0.0211201  
H208     H      0.715490000000     0.949740000000     0.438770000000     0.0418954  
H209     H      0.604480000000     0.933490000000     0.510230000000     0.0381076  
H210     H      0.769630000000     0.034670000000     0.521590000000     0.0428542  
H211     H      0.654850000000     0.969770000000     0.527190000000     0.0381248  
H212     H      0.881500000000     0.975640000000     0.541110000000     0.0384878  
H213     H      0.837940000000     0.966210000000     0.444450000000     0.0357306  
H214     H      0.833690000000     0.951060000000     0.505950000000     0.0374537  
H215     H      0.705910000000     0.028230000000     0.520220000000     0.0396561  
H216     H      0.649140000000     0.029690000000     0.504810000000     0.0423304  
H217     H      0.874600000000     0.037020000000     0.455190000000     0.0364887  
H218     H      0.616000000000     0.032480000000     0.413020000000     0.0614618  
H219     H      0.577700000000     0.005760000000     0.420330000000     0.0704379  
H220     H      0.620530000000     0.985500000000     0.418130000000     0.0716129  
H221     H      0.022690000000     0.709430000000     0.545380000000     0.0393213  
H222     H      0.013960000000     0.822990000000     0.452570000000     0.0338991  
H223     H      0.976250000000     0.825080000000     0.557790000000     0.0396165  
H224     H      0.015190000000     0.617960000000     0.457370000000     0.0334758  
H225     H      0.042490000000     0.872860000000     0.478840000000     0.032884   
H226     H      0.930630000000     0.671120000000     0.513690000000     0.0328742  
H227     H      0.039000000000     0.667340000000     0.487870000000     0.0332739  
H228     H      0.929800000000     0.604930000000     0.518700000000     0.0375122  
H229     H      0.972750000000     0.891320000000     0.554750000000     0.018252   
H230     H      0.029550000000     0.773170000000     0.547460000000     0.0411176  
H231     H      0.009560000000     0.888720000000     0.449200000000     0.0399012  
H232     H      0.947500000000     0.720290000000     0.460930000000     0.0426329  
H233     H      0.970760000000     0.840390000000     0.462070000000     0.0368701  
H234     H      0.037960000000     0.601300000000     0.495080000000     0.0396784  
H235     H      0.962150000000     0.653920000000     0.544630000000     0.0370294  
H236     H      0.023730000000     0.651600000000     0.530080000000     0.0356542  
H237     H      0.951720000000     0.784120000000     0.465490000000     0.0396246  
H238     H      0.949620000000     0.841650000000     0.522500000000     0.0434211  
H239     H      0.935940000000     0.621540000000     0.474930000000     0.0377651  
H240     H      0.021900000000     0.862210000000     0.585720000000     0.0611475  
H241     H      0.036870000000     0.901710000000     0.564550000000     0.0746721  
H242     H      0.046950000000     0.859570000000     0.545390000000     0.0718647  
H243     H      0.947400000000     0.205820000000     0.443340000000     0.0397557  
H244     H      0.924440000000     0.323060000000     0.489430000000     0.0332526  
H245     H      0.028230000000     0.325560000000     0.448340000000     0.0404007  
H246     H      0.009110000000     0.125550000000     0.540900000000     0.035955   
H247     H      0.926440000000     0.372220000000     0.448880000000     0.0344711  
H248     H      0.013450000000     0.167490000000     0.436680000000     0.0336003  
H249     H      0.968140000000     0.174030000000     0.538550000000     0.0330209  
H250     H      0.009370000000     0.101560000000     0.438940000000     0.0402734  
H251     H      0.028600000000     0.391680000000     0.454320000000     0.0206925  
H252     H      0.941310000000     0.268970000000     0.433180000000     0.0419882  
H253     H      0.923560000000     0.388690000000     0.493120000000     0.0378152  
H254     H      0.023330000000     0.226260000000     0.525260000000     0.0425162  
H255     H      0.959770000000     0.340530000000     0.515850000000     0.0364557  
H256     H      0.965200000000     0.108160000000     0.541710000000     0.0384677  
H257     H      0.969680000000     0.150620000000     0.444170000000     0.0364963  
H258     H      0.943610000000     0.154720000000     0.502820000000     0.0377926  
H259     H      0.014650000000     0.289390000000     0.517390000000     0.0390114  
H260     H      0.019780000000     0.342530000000     0.491710000000     0.0413748  
H261     H      0.039860000000     0.120360000000     0.469550000000     0.034141   
H262     H      0.020270000000     0.364500000000     0.396390000000     0.0614869  
H263     H      0.993810000000     0.403510000000     0.399910000000     0.0696403  
H264     H      0.973450000000     0.360830000000     0.403440000000     0.0717189  
N1       N      0.890830000000     0.487170000000     0.005430000000    -0.184011   
N2       N      0.817340000000     0.485820000000     0.015840000000    -0.11006    
N3       N      0.667500000000     0.480810000000     0.004030000000    -0.113112   
N4       N      0.594540000000     0.491310000000     0.997800000000    -0.172214   
N5       N      0.093540000000     0.487910000000     0.967200000000    -0.184066   
N6       N      0.167010000000     0.487490000000     0.956510000000    -0.109882   
N7       N      0.317260000000     0.487090000000     0.965670000000    -0.112823   
N8       N      0.390160000000     0.497240000000     0.971820000000    -0.172631   
N9       N      0.491830000000     0.599540000000     0.991490000000    -0.183503   
N10      N      0.491660000000     0.673470000000     0.996930000000    -0.110086   
N11      N      0.512170000000     0.820030000000     0.021810000000    -0.113752   
N12      N      0.514220000000     0.894060000000     0.021310000000    -0.172947   
N13      N      0.508190000000     0.098420000000     0.996040000000    -0.183589   
N14      N      0.505170000000     0.172280000000     0.993290000000    -0.109933   
N15      N      0.487460000000     0.320010000000     0.975900000000    -0.113495   
N16      N      0.488000000000     0.394020000000     0.978230000000    -0.172486   
N17      N      0.509690000000     0.979370000000     0.904440000000    -0.183811   
N18      N      0.508460000000     0.969610000000     0.830800000000    -0.110062   
N19      N      0.499250000000     0.977300000000     0.680710000000    -0.113214   
N20      N      0.503700000000     0.977990000000     0.606820000000    -0.172131   
N21      N      0.479300000000     0.986970000000     0.402100000000    -0.184314   
N22      N      0.480900000000     0.992990000000     0.328080000000    -0.110318   
N23      N      0.508960000000     0.015860000000     0.182080000000    -0.113749   
N24      N      0.513190000000     0.013130000000     0.108060000000    -0.17329    
N25      N      0.977420000000     0.478490000000     0.586370000000    -0.183819   
N26      N      0.977930000000     0.469060000000     0.660070000000    -0.11012    
N27      N      0.985640000000     0.478240000000     0.810220000000    -0.113166   
N28      N      0.980670000000     0.480880000000     0.883990000000    -0.172469   
N29      N      0.977140000000     0.514890000000     0.383180000000    -0.184421   
N30      N      0.981610000000     0.519200000000     0.309140000000    -0.110288   
N31      N      0.007580000000     0.499620000000     0.162170000000    -0.113418   
N32      N      0.007850000000     0.493330000000     0.088250000000    -0.172994   
N33      N      0.096160000000     0.001940000000     0.508450000000    -0.183759   
N34      N      0.169960000000     0.004670000000     0.514220000000    -0.109991   
N35      N      0.318030000000     0.984420000000     0.529630000000    -0.113774   
N36      N      0.391690000000     0.981720000000     0.521850000000    -0.172954   
N37      N      0.594480000000     0.983440000000     0.485800000000    -0.183904   
N38      N      0.667860000000     0.985850000000     0.474900000000    -0.110147   
N39      N      0.817280000000     0.000200000000     0.484340000000    -0.112795   
N40      N      0.890960000000     0.996410000000     0.489370000000    -0.1725     
N41      N      0.998440000000     0.894870000000     0.504680000000    -0.184319   
N42      N      0.999220000000     0.820920000000     0.506690000000    -0.110068   
N43      N      0.983810000000     0.672270000000     0.496120000000    -0.113347   
N44      N      0.981460000000     0.598520000000     0.497080000000    -0.17294    
N45      N      0.973700000000     0.395010000000     0.467540000000    -0.184506   
N46      N      0.974950000000     0.320960000000     0.465380000000    -0.110412   
N47      N      0.994420000000     0.174190000000     0.489040000000    -0.113636   
N48      N      0.993960000000     0.100390000000     0.493630000000    -0.173168   
Ni1      Ni     0.996790000000     0.995960000000     0.467880000000     1.00017    
Ni2      Ni     0.990400000000     0.999190000000     0.530140000000     0.993517   
Ni3      Ni     0.946000000000     0.497520000000     0.485160000000     0.99086    
Ni4      Ni     0.008490000000     0.495410000000     0.484220000000     1.00354    
Ni5      Ni     0.493230000000     0.951340000000     0.502860000000     0.993483   
Ni6      Ni     0.493140000000     0.013660000000     0.505720000000     0.996459   
Ni7      Ni     0.542680000000     0.996710000000     0.005450000000     0.989825   
Ni8      Ni     0.480190000000     0.995210000000     0.007230000000     1.00012    
Ni9      Ni     0.992650000000     0.456120000000     0.988210000000     0.99939    
Ni10     Ni     0.991740000000     0.518540000000     0.984490000000     0.993703   
Ni11     Ni     0.488110000000     0.494850000000     0.015920000000     1.00001    
Ni12     Ni     0.496670000000     0.498570000000     0.953950000000     0.99212    
O1       O      0.996970000000     0.945910000000     0.472580000000    -0.453607   
O2       O      0.997120000000     0.046230000000     0.467380000000    -0.452763   
O3       O      0.046530000000     0.996020000000     0.474790000000    -0.453761   
O4       O      0.946330000000     0.996230000000     0.465060000000    -0.450435   
O5       O      0.940700000000     0.996410000000     0.523360000000    -0.452134   
O6       O      0.040780000000     0.001880000000     0.532790000000    -0.452254   
O7       O      0.988250000000     0.049300000000     0.525200000000    -0.451081   
O8       O      0.992610000000     0.948880000000     0.530910000000    -0.453406   
O9       O      0.946310000000     0.447510000000     0.479000000000    -0.451228   
O10      O      0.949910000000     0.547380000000     0.491670000000    -0.449669   
O11      O      0.947850000000     0.503640000000     0.434890000000    -0.450019   
O12      O      0.948350000000     0.491240000000     0.535060000000    -0.452059   
O13      O      0.006520000000     0.485480000000     0.533770000000    -0.453012   
O14      O      0.006290000000     0.505580000000     0.435050000000    -0.455904   
O15      O      0.008320000000     0.544780000000     0.493350000000    -0.453944   
O16      O      0.004570000000     0.446290000000     0.474250000000    -0.455535   
O17      O      0.543430000000     0.953750000000     0.498280000000    -0.450318   
O18      O      0.442990000000     0.953260000000     0.507610000000    -0.449324   
O19      O      0.488850000000     0.955690000000     0.452820000000    -0.452377   
O20      O      0.497500000000     0.951190000000     0.553090000000    -0.451178   
O21      O      0.503040000000     0.009320000000     0.555110000000    -0.449225   
O22      O      0.483070000000     0.013720000000     0.456210000000    -0.452105   
O23      O      0.443960000000     0.011070000000     0.515970000000    -0.452356   
O24      O      0.542300000000     0.012070000000     0.495190000000    -0.453649   
O25      O      0.541610000000     0.002130000000     0.055830000000    -0.44967    
O26      O      0.539570000000     0.991210000000     0.955490000000    -0.452142   
O27      O      0.539190000000     0.046710000000     0.999790000000    -0.451615   
O28      O      0.541940000000     0.946590000000     0.010830000000    -0.449748   
O29      O      0.483730000000     0.945800000000     0.016230000000    -0.452568   
O30      O      0.480760000000     0.044790000000     0.998960000000    -0.452762   
O31      O      0.481370000000     0.986120000000     0.957490000000    -0.452601   
O32      O      0.483180000000     0.004530000000     0.056570000000    -0.453228   
O33      O      0.985190000000     0.455090000000     0.938380000000    -0.452448   
O34      O      0.000220000000     0.461190000000     0.037780000000    -0.452653   
O35      O      0.942960000000     0.457970000000     0.996540000000    -0.451962   
O36      O      0.042280000000     0.458440000000     0.979590000000    -0.451713   
O37      O      0.041470000000     0.516780000000     0.976780000000    -0.453725   
O38      O      0.942070000000     0.516230000000     0.992470000000    -0.453926   
O39      O      0.999920000000     0.519510000000     0.034340000000    -0.451858   
O40      O      0.983860000000     0.513410000000     0.934830000000    -0.451113   
O41      O      0.485600000000     0.444920000000     0.010430000000    -0.452198   
O42      O      0.490270000000     0.545050000000     0.017240000000    -0.453713   
O43      O      0.438700000000     0.497940000000     0.007480000000    -0.453541   
O44      O      0.538390000000     0.491810000000     0.020280000000    -0.450084   
O45      O      0.546150000000     0.498410000000     0.962600000000    -0.451693   
O46      O      0.446320000000     0.498210000000     0.949390000000    -0.449318   
O47      O      0.496370000000     0.548760000000     0.959090000000    -0.449989   
O48      O      0.496810000000     0.448130000000     0.953030000000    -0.449145   


