data_structure

_audit_creation_method RASPA-1.0
_audit_creation_date 2023-5-25
_audit_author_name 'Poobodin Mano'

_cell_length_a    38.1077
_cell_length_b    37.9275
_cell_length_c    37.9368
_cell_angle_alpha 90
_cell_angle_beta  90
_cell_angle_gamma 90
_cell_volume      54831.2

_symmetry_cell_setting          triclinic
_symmetry_space_group_name_Hall 'P 1'
_symmetry_space_group_name_H-M  'P 1'
_symmetry_Int_Tables_number     1

_symmetry_equiv_pos_as_xyz 'x,y,z'

loop_
_atom_site_label
_atom_site_type_symbol
_atom_site_fract_x
_atom_site_fract_y
_atom_site_fract_z
_atom_site_charge
C1       C      0.982040000000     0.062710000000     0.480000000000     0.42845    
C2       C      0.990490000000     0.928840000000     0.491980000000     0.429339   
C3       C      0.052980000000     0.999070000000     0.480090000000     0.430031   
C4       C      0.919560000000     0.993650000000     0.492120000000     0.428698   
C5       C      0.984300000000     0.430590000000     0.465940000000     0.42968    
C6       C      0.982860000000     0.561330000000     0.498320000000     0.428201   
C7       C      0.988840000000     0.511980000000     0.416780000000     0.429318   
C8       C      0.978270000000     0.479710000000     0.547130000000     0.429485   
C9       C      0.488600000000     0.978310000000     0.443210000000     0.428171   
C10      C      0.480150000000     0.985840000000     0.577230000000     0.430097   
C11      C      0.417470000000     0.977710000000     0.507280000000     0.427432   
C12      C      0.551190000000     0.986420000000     0.513070000000     0.425728   
C13      C      0.500690000000     0.983780000000     0.075430000000     0.431373   
C14      C      0.503260000000     0.007410000000     0.943090000000     0.429486   
C15      C      0.511250000000     0.061350000000     0.021030000000     0.430407   
C16      C      0.492830000000     0.929900000000     0.999120000000     0.429872   
C17      C      0.999910000000     0.504590000000     0.048910000000     0.426884   
C18      C      0.991540000000     0.492620000000     0.914940000000     0.427607   
C19      C      0.062100000000     0.495950000000     0.977540000000     0.430541   
C20      C      0.928500000000     0.501120000000     0.985040000000     0.430343   
C21      C      0.428400000000     0.487130000000     0.993900000000     0.428608   
C22      C      0.561240000000     0.502960000000     0.995370000000     0.42853    
C23      C      0.501590000000     0.428220000000     0.999150000000     0.427465   
C24      C      0.488130000000     0.561740000000     0.990140000000     0.427591   
C25      C      0.837690000000     0.538330000000     0.984500000000    -0.0311156  
C26      C      0.654210000000     0.493650000000     0.022080000000    -0.0310525  
C27      C      0.613770000000     0.525560000000     0.965110000000    -0.00529079 
C28      C      0.616490000000     0.505700000000     0.029030000000    -0.004193   
C29      C      0.729280000000     0.533740000000     0.013280000000    -0.053961   
C30      C      0.759670000000     0.484040000000     0.968360000000    -0.0537697  
C31      C      0.707640000000     0.511850000000     0.992950000000     0.0612195  
C32      C      0.651700000000     0.513280000000     0.961210000000    -0.0305302  
C33      C      0.781310000000     0.506960000000     0.987500000000     0.0614958  
C34      C      0.835380000000     0.477900000000     0.004890000000    -0.042164   
C35      C      0.765780000000     0.530940000000     0.011220000000    -0.0559991  
C36      C      0.872180000000     0.469490000000     0.990540000000     0.0394921  
C37      C      0.874870000000     0.533950000000     0.970080000000    -0.00387939 
C38      C      0.723220000000     0.485840000000     0.971540000000    -0.0559359  
C39      C      0.151560000000     0.457490000000     0.978360000000    -0.0310386  
C40      C      0.334880000000     0.501590000000     0.015070000000    -0.0309636  
C41      C      0.376650000000     0.461310000000     0.964770000000    -0.00534476 
C42      C      0.371830000000     0.489510000000     0.025320000000    -0.00433566 
C43      C      0.259190000000     0.463780000000     0.009420000000    -0.0538684  
C44      C      0.231710000000     0.505580000000     0.955480000000    -0.0536931  
C45      C      0.282110000000     0.481040000000     0.986260000000     0.0612626  
C46      C      0.339350000000     0.474000000000     0.957480000000    -0.0305073  
C47      C      0.208800000000     0.487160000000     0.977730000000     0.0614934  
C48      C      0.155650000000     0.520410000000     0.989130000000    -0.0422131  
C49      C      0.222890000000     0.467320000000     0.005780000000    -0.0559298  
C50      C      0.118810000000     0.527250000000     0.973950000000     0.0396442  
C51      C      0.114590000000     0.460790000000     0.963230000000    -0.00382305 
C52      C      0.267990000000     0.503250000000     0.960060000000    -0.0558087  
C53      C      0.515300000000     0.834540000000     0.993330000000    -0.0307182  
C54      C      0.463590000000     0.651810000000     0.958390000000    -0.030993   
C55      C      0.501540000000     0.619050000000     0.016760000000    -0.00529789 
C56      C      0.478520000000     0.614570000000     0.953610000000    -0.004375   
C57      C      0.499850000000     0.730120000000     0.958910000000    -0.0536017  
C58      C      0.454860000000     0.762390000000     0.007260000000    -0.0536095  
C59      C      0.479880000000     0.709180000000     0.981800000000     0.0609945  
C60      C      0.485950000000     0.656030000000     0.017970000000    -0.0304176  
C61      C      0.477090000000     0.783250000000     0.986540000000     0.0616108  
C62      C      0.455540000000     0.842330000000     0.972960000000    -0.0418099  
C63      C      0.498000000000     0.766870000000     0.960650000000    -0.0561467  
C64      C      0.452770000000     0.879380000000     0.989620000000     0.0386897  
C65      C      0.516160000000     0.870770000000     0.010600000000    -0.00412734 
C66      C      0.455610000000     0.725660000000     0.004490000000    -0.0555886  
C67      C      0.485300000000     0.153750000000     0.030000000000    -0.0309778  
C68      C      0.527570000000     0.335210000000     0.979790000000    -0.0308806  
C69      C      0.488240000000     0.374630000000     0.032820000000    -0.00540549 
C70      C      0.512240000000     0.371240000000     0.969970000000    -0.00446091 
C71      C      0.493550000000     0.257240000000     0.988200000000    -0.0536962  
C72      C      0.538410000000     0.231410000000     0.040400000000    -0.0539433  
C73      C      0.511690000000     0.281030000000     0.009800000000     0.0610071  
C74      C      0.504190000000     0.338260000000     0.039020000000    -0.0303969  
C75      C      0.518560000000     0.207730000000     0.020270000000     0.0615347  
C76      C      0.544580000000     0.151050000000     0.006150000000    -0.0421439  
C77      C      0.497420000000     0.220910000000     0.992800000000    -0.0563223  
C78      C      0.550280000000     0.113520000000     0.020810000000     0.03959    
C79      C      0.488360000000     0.116950000000     0.045840000000    -0.00361303 
C80      C      0.535630000000     0.267740000000     0.034850000000    -0.055689   
C81      C      0.478640000000     0.026850000000     0.665720000000    -0.0309331  
C82      C      0.524310000000     0.992080000000     0.850060000000    -0.0311226  
C83      C      0.476050000000     0.035440000000     0.891030000000    -0.00521217 
C84      C      0.535260000000     0.005540000000     0.886500000000    -0.00435842 
C85      C      0.516030000000     0.027040000000     0.771960000000    -0.0541098  
C86      C      0.463190000000     0.981540000000     0.748850000000    -0.0536823  
C87      C      0.494600000000     0.010180000000     0.796780000000     0.0613761  
C88      C      0.467630000000     0.021380000000     0.854280000000    -0.0305175  
C89      C      0.483600000000     0.999600000000     0.724010000000     0.0613533  
C90      C      0.496260000000     0.965590000000     0.671420000000    -0.0422013  
C91      C      0.511160000000     0.021350000000     0.735910000000    -0.0560269  
C92      C      0.480900000000     0.955960000000     0.635120000000     0.0395612  
C93      C      0.462760000000     0.020580000000     0.629330000000    -0.00378013 
C94      C      0.468990000000     0.986140000000     0.784910000000    -0.056109   
C95      C      0.473670000000     0.989510000000     0.168840000000    -0.0315439  
C96      C      0.500450000000     0.940440000000     0.353040000000    -0.0304184  
C97      C      0.487830000000     0.008790000000     0.386070000000    -0.00402781 
C98      C      0.510280000000     0.945530000000     0.391750000000    -0.00549337 
C99      C      0.523180000000     0.993330000000     0.275970000000    -0.0538044  
C100     C      0.478320000000     0.945910000000     0.242200000000    -0.0536956  
C101     C      0.501720000000     0.971220000000     0.296230000000     0.0613469  
C102     C      0.478220000000     0.999990000000     0.347970000000    -0.0310138  
C103     C      0.500480000000     0.967360000000     0.221970000000     0.0617032  
C104     C      0.533200000000     0.966960000000     0.166310000000    -0.0416625  
C105     C      0.522160000000     0.992020000000     0.239210000000    -0.0561383  
C106     C      0.529750000000     0.957080000000     0.127160000000     0.0385038  
C107     C      0.466630000000     0.979660000000     0.130420000000    -0.00283228 
C108     C      0.478330000000     0.948210000000     0.278950000000    -0.055935   
C109     C      0.950040000000     0.489330000000     0.639000000000    -0.0314964  
C110     C      0.986270000000     0.450910000000     0.825680000000    -0.0307061  
C111     C      0.987330000000     0.521260000000     0.856890000000    -0.00443855 
C112     C      0.001610000000     0.455670000000     0.862630000000    -0.00506874 
C113     C      0.004650000000     0.500550000000     0.744270000000    -0.0533813  
C114     C      0.956740000000     0.452050000000     0.716870000000    -0.0534776  
C115     C      0.984900000000     0.479720000000     0.767490000000     0.0608395  
C116     C      0.971670000000     0.512770000000     0.820710000000    -0.0308855  
C117     C      0.977680000000     0.471730000000     0.693730000000     0.0611121  
C118     C      0.008920000000     0.464500000000     0.637810000000    -0.0416855  
C119     C      0.000610000000     0.497260000000     0.707820000000    -0.0557319  
C120     C      0.004480000000     0.451510000000     0.599710000000     0.0389354  
C121     C      0.942490000000     0.476510000000     0.601400000000    -0.00330238 
C122     C      0.959710000000     0.456390000000     0.753370000000    -0.0554555  
C123     C      0.969290000000     0.507410000000     0.321720000000    -0.0316009  
C124     C      0.007100000000     0.546520000000     0.137670000000    -0.0304806  
C125     C      0.000800000000     0.476140000000     0.107280000000    -0.00437695 
C126     C      0.018970000000     0.540350000000     0.099640000000    -0.00563678 
C127     C      0.027980000000     0.497460000000     0.218590000000    -0.0535814  
C128     C      0.981180000000     0.545910000000     0.247860000000    -0.0536229  
C129     C      0.007560000000     0.518510000000     0.196160000000     0.0609329  
C130     C      0.988900000000     0.485770000000     0.144610000000    -0.0310784  
C131     C      0.002070000000     0.525330000000     0.270280000000     0.0612838  
C132     C      0.030180000000     0.524570000000     0.328870000000    -0.0417235  
C133     C      0.024860000000     0.500210000000     0.255220000000    -0.0557183  
C134     C      0.024330000000     0.535880000000     0.367460000000     0.0384152  
C135     C      0.959960000000     0.519310000000     0.359070000000    -0.00306305 
C136     C      0.983240000000     0.542120000000     0.211260000000    -0.0557625  
C137     C      0.142430000000     0.972530000000     0.453930000000    -0.0316835  
C138     C      0.325610000000     0.008690000000     0.502850000000    -0.0301644  
C139     C      0.363630000000     0.942000000000     0.500180000000    -0.00472937 
C140     C      0.360860000000     0.005380000000     0.521570000000    -0.00548538 
C141     C      0.246320000000     0.957800000000     0.511330000000    -0.05358    
C142     C      0.224150000000     0.003460000000     0.457990000000    -0.0531764  
C143     C      0.271380000000     0.976360000000     0.491680000000     0.0611197  
C144     C      0.328050000000     0.948160000000     0.482090000000    -0.0309317  
C145     C      0.199110000000     0.987040000000     0.479480000000     0.0611306  
C146     C      0.145100000000     0.003800000000     0.509810000000    -0.0414698  
C147     C      0.210480000000     0.962470000000     0.504920000000    -0.0557935  
C148     C      0.109150000000     0.021060000000     0.503940000000     0.0385695  
C149     C      0.106670000000     0.988920000000     0.444910000000    -0.00303095 
C150     C      0.260000000000     0.997700000000     0.463480000000    -0.0560921  
C151     C      0.829190000000     0.979900000000     0.527960000000    -0.0315623  
C152     C      0.642310000000     0.024120000000     0.507210000000    -0.0303972  
C153     C      0.607930000000     0.956310000000     0.519010000000    -0.00435016 
C154     C      0.603770000000     0.020020000000     0.496670000000    -0.00557265 
C155     C      0.717910000000     0.967910000000     0.485690000000    -0.0535787  
C156     C      0.753080000000     0.018960000000     0.525230000000    -0.0534121  
C157     C      0.698400000000     0.991930000000     0.505830000000     0.0607826  
C158     C      0.645820000000     0.964610000000     0.529480000000    -0.0308546  
C159     C      0.772460000000     0.995990000000     0.503790000000     0.0610604  
C160     C      0.824860000000     0.995040000000     0.466150000000    -0.041698   
C161     C      0.754560000000     0.969330000000     0.485180000000    -0.0558693  
C162     C      0.862880000000     0.008430000000     0.464620000000     0.0381997  
C163     C      0.867190000000     0.993020000000     0.530250000000    -0.00326061 
C164     C      0.716480000000     0.016620000000     0.526870000000    -0.0555998  
C165     C      0.975780000000     0.833540000000     0.474330000000    -0.0316063  
C166     C      0.018250000000     0.650160000000     0.515500000000    -0.0307423  
C167     C      0.950130000000     0.617330000000     0.503400000000    -0.00449924 
C168     C      0.012080000000     0.612010000000     0.526980000000    -0.00516489 
C169     C      0.969230000000     0.730400000000     0.533020000000    -0.054012   
C170     C      0.015170000000     0.758670000000     0.483120000000    -0.0531884  
C171     C      0.989190000000     0.707610000000     0.511940000000     0.0611752  
C172     C      0.959010000000     0.655080000000     0.492200000000    -0.0310271  
C173     C      0.995960000000     0.781460000000     0.504870000000     0.061011   
C174     C      0.999640000000     0.839720000000     0.533150000000    -0.0418435  
C175     C      0.972000000000     0.766950000000     0.529180000000    -0.0557798  
C176     C      0.011940000000     0.877760000000     0.526210000000     0.0383545  
C177     C      0.987730000000     0.870530000000     0.463660000000    -0.00306067 
C178     C      0.011400000000     0.722140000000     0.486030000000    -0.0559508  
C179     C      0.949100000000     0.340790000000     0.454930000000    -0.0312048  
C180     C      0.994050000000     0.158380000000     0.497960000000    -0.0310562  
C181     C      0.962330000000     0.113260000000     0.444450000000    -0.00536881 
C182     C      0.982100000000     0.121220000000     0.508130000000    -0.0042544  
C183     C      0.954940000000     0.232390000000     0.486610000000    -0.0535171  
C184     C      0.000260000000     0.261140000000     0.436440000000    -0.0532219  
C185     C      0.974930000000     0.209770000000     0.465370000000     0.0612812  
C186     C      0.974400000000     0.151100000000     0.437690000000    -0.0306163  
C187     C      0.979460000000     0.283700000000     0.456930000000     0.0612249  
C188     C      0.010230000000     0.337270000000     0.472830000000    -0.0423908  
C189     C      0.957630000000     0.268960000000     0.483070000000    -0.0556713  
C190     C      0.017780000000     0.375060000000     0.460040000000     0.0399018  
C191     C      0.953520000000     0.378560000000     0.441590000000    -0.00375275 
C192     C      0.998660000000     0.224600000000     0.441000000000    -0.055861   
H1       H      0.707470000000     0.467420000000     0.956630000000     0.0407021  
H2       H      0.823980000000     0.558790000000     0.968600000000     0.0348141  
H3       H      0.819280000000     0.453360000000     0.005910000000     0.0387147  
H4       H      0.613700000000     0.554630000000     0.968990000000     0.0364553  
H5       H      0.873410000000     0.531580000000     0.940900000000     0.0384895  
H6       H      0.669090000000     0.495470000000     0.047270000000     0.0340394  
H7       H      0.664800000000     0.529870000000     0.940900000000     0.0348443  
H8       H      0.603900000000     0.486650000000     0.047410000000     0.0396151  
H9       H      0.885670000000     0.452620000000     0.010340000000     0.0319667  
H10      H      0.771200000000     0.464730000000     0.950810000000     0.0453016  
H11      H      0.889880000000     0.558390000000     0.975990000000     0.0408949  
H12      H      0.717720000000     0.553150000000     0.030700000000     0.0438837  
H13      H      0.839430000000     0.547740000000     0.012240000000     0.0363608  
H14      H      0.599620000000     0.520060000000     0.940070000000     0.0413389  
H15      H      0.654360000000     0.465600000000     0.013350000000     0.0385198  
H16      H      0.651440000000     0.485470000000     0.951840000000     0.0373846  
H17      H      0.781560000000     0.548130000000     0.027500000000     0.0404226  
H18      H      0.837550000000     0.487710000000     0.032490000000     0.040175   
H19      H      0.617150000000     0.531860000000     0.042250000000     0.0379796  
H20      H      0.284720000000     0.518230000000     0.942600000000     0.0407601  
H21      H      0.164680000000     0.434460000000     0.965820000000     0.0350308  
H22      H      0.172280000000     0.544400000000     0.985900000000     0.0389204  
H23      H      0.375560000000     0.433070000000     0.972580000000     0.0365067  
H24      H      0.116320000000     0.459810000000     0.933990000000     0.0383027  
H25      H      0.318900000000     0.503540000000     0.039570000000     0.0340229  
H26      H      0.326590000000     0.455220000000     0.938930000000     0.0348696  
H27      H      0.384210000000     0.510390000000     0.041730000000     0.0397974  
H28      H      0.106090000000     0.547590000000     0.990780000000     0.0321335  
H29      H      0.221310000000     0.521830000000     0.934450000000     0.0453805  
H30      H      0.099080000000     0.437470000000     0.971730000000     0.04113    
H31      H      0.269590000000     0.447450000000     0.030380000000     0.0438696  
H32      H      0.149360000000     0.452450000000     0.007190000000     0.037083   
H33      H      0.392040000000     0.462920000000     0.939930000000     0.0414331  
H34      H      0.336030000000     0.528230000000     0.002750000000     0.0387186  
H35      H      0.340930000000     0.500310000000     0.944580000000     0.0375149  
H36      H      0.206140000000     0.453880000000     0.024440000000     0.0405926  
H37      H      0.153560000000     0.515370000000     0.018000000000     0.0404882  
H38      H      0.369730000000     0.465260000000     0.041670000000     0.0379653  
H39      H      0.438610000000     0.710370000000     0.021430000000     0.0407502  
H40      H      0.533410000000     0.816830000000     0.008060000000     0.0354887  
H41      H      0.429040000000     0.829960000000     0.971270000000     0.0388941  
H42      H      0.530370000000     0.621270000000     0.012710000000     0.037067   
H43      H      0.512720000000     0.867440000000     0.039520000000     0.0403565  
H44      H      0.462700000000     0.664800000000     0.932090000000     0.0339376  
H45      H      0.501870000000     0.672300000000     0.036430000000     0.0350447  
H46      H      0.459380000000     0.598530000000     0.938320000000     0.0388507  
H47      H      0.438550000000     0.896690000000     0.970730000000     0.0314554  
H48      H      0.437820000000     0.774630000000     0.026560000000     0.0457135  
H49      H      0.542690000000     0.882230000000     0.006390000000     0.0420156  
H50      H      0.517840000000     0.717860000000     0.940510000000     0.0438147  
H51      H      0.525040000000     0.837070000000     0.965770000000     0.0365796  
H52      H      0.497420000000     0.606400000000     0.042880000000     0.0414162  
H53      H      0.436290000000     0.650390000000     0.968790000000     0.0379489  
H54      H      0.458730000000     0.654230000000     0.028470000000     0.0368796  
H55      H      0.514370000000     0.782200000000     0.943130000000     0.0405498  
H56      H      0.465500000000     0.844720000000     0.945450000000     0.0397778  
H57      H      0.503050000000     0.616260000000     0.937820000000     0.0388004  
H58      H      0.551230000000     0.285200000000     0.051020000000     0.0405987  
H59      H      0.467040000000     0.169540000000     0.046590000000     0.0352233  
H60      H      0.570200000000     0.165130000000     0.004260000000     0.0393654  
H61      H      0.459510000000     0.371550000000     0.028690000000     0.0371715  
H62      H      0.495250000000     0.119630000000     0.074190000000     0.0378549  
H63      H      0.529210000000     0.318990000000     0.955380000000     0.0338786  
H64      H      0.488110000000     0.324260000000     0.059120000000     0.0347187  
H65      H      0.531410000000     0.385400000000     0.952980000000     0.039079   
H66      H      0.565400000000     0.098450000000     0.000750000000     0.0324275  
H67      H      0.555630000000     0.221640000000     0.060900000000     0.0454015  
H68      H      0.462270000000     0.103910000000     0.044570000000     0.0410657  
H69      H      0.475870000000     0.266980000000     0.968080000000     0.043841   
H70      H      0.473830000000     0.151240000000     0.003150000000     0.0379865  
H71      H      0.491840000000     0.390610000000     0.057130000000     0.041336   
H72      H      0.554640000000     0.338420000000     0.990410000000     0.0380106  
H73      H      0.531200000000     0.341730000000     0.049670000000     0.0366671  
H74      H      0.482960000000     0.203360000000     0.975670000000     0.0407026  
H75      H      0.533900000000     0.149150000000     0.978870000000     0.0403456  
H76      H      0.487980000000     0.367110000000     0.954190000000     0.0387264  
H77      H      0.452990000000     0.971390000000     0.803240000000     0.0409337  
H78      H      0.464170000000     0.048830000000     0.678630000000     0.0349651  
H79      H      0.496040000000     0.942000000000     0.688970000000     0.0390196  
H80      H      0.485320000000     0.063120000000     0.888450000000     0.0358148  
H81      H      0.433830000000     0.018110000000     0.632210000000     0.0380527  
H82      H      0.548400000000     0.989040000000     0.833730000000     0.034073   
H83      H      0.449560000000     0.040210000000     0.840990000000     0.0348558  
H84      H      0.551780000000     0.985090000000     0.899390000000     0.0401699  
H85      H      0.499350000000     0.937110000000     0.622430000000     0.0322349  
H86      H      0.442630000000     0.963840000000     0.740140000000     0.0454178  
H87      H      0.467790000000     0.044220000000     0.612780000000     0.0410462  
H88      H      0.536590000000     0.044730000000     0.780670000000     0.0438178  
H89      H      0.506500000000     0.034960000000     0.662240000000     0.0371608  
H90      H      0.451540000000     0.035900000000     0.906910000000     0.041354   
H91      H      0.511620000000     0.965740000000     0.852580000000     0.0389021  
H92      H      0.453930000000     0.995650000000     0.857300000000     0.0380408  
H93      H      0.528470000000     0.034540000000     0.717590000000     0.0404887  
H94      H      0.524240000000     0.973540000000     0.668210000000     0.0402804  
H95      H      0.551490000000     0.029660000000     0.883120000000     0.0374373  
H96      H      0.460320000000     0.931760000000     0.293580000000     0.0406744  
H97      H      0.448290000000     0.988430000000     0.183350000000     0.0345135  
H98      H      0.552780000000     0.949610000000     0.179580000000     0.0401542  
H99      H      0.512670000000     0.024190000000     0.386210000000     0.0387045  
H100     H      0.452010000000     0.954300000000     0.129690000000     0.0409768  
H101     H      0.518510000000     0.920590000000     0.341290000000     0.0348704  
H102     H      0.479220000000     0.024820000000     0.332340000000     0.0341225  
H103     H      0.503830000000     0.920930000000     0.406320000000     0.0412405  
H104     H      0.554880000000     0.964220000000     0.114100000000     0.0347004  
H105     H      0.460700000000     0.927580000000     0.229320000000     0.0449681  
H106     H      0.449500000000     0.000260000000     0.118620000000     0.0397711  
H107     H      0.540530000000     0.011930000000     0.288840000000     0.0442834  
H108     H      0.483840000000     0.017010000000     0.170410000000     0.0385667  
H109     H      0.466900000000     0.025870000000     0.397320000000     0.0394255  
H110     H      0.473210000000     0.929900000000     0.351790000000     0.0366148  
H111     H      0.450920000000     0.989540000000     0.346670000000     0.038117   
H112     H      0.538540000000     0.010080000000     0.224550000000     0.0410262  
H113     H      0.543540000000     0.994380000000     0.167590000000     0.0396617  
H114     H      0.539160000000     0.949320000000     0.393590000000     0.0373182  
H115     H      0.942950000000     0.440780000000     0.770250000000     0.0407801  
H116     H      0.924780000000     0.490010000000     0.653730000000     0.0345123  
H117     H      0.027940000000     0.447450000000     0.652240000000     0.0403756  
H118     H      0.013770000000     0.533090000000     0.853130000000     0.0400317  
H119     H      0.927640000000     0.451320000000     0.602850000000     0.0398777  
H120     H      0.999880000000     0.428410000000     0.812730000000     0.0350171  
H121     H      0.973840000000     0.536790000000     0.803980000000     0.033938   
H122     H      0.993790000000     0.432660000000     0.879010000000     0.0415673  
H123     H      0.029930000000     0.455700000000     0.586030000000     0.0346359  
H124     H      0.938210000000     0.433030000000     0.706500000000     0.044783   
H125     H      0.925510000000     0.496270000000     0.588050000000     0.039336   
H126     H      0.023420000000     0.519350000000     0.754570000000     0.0440394  
H127     H      0.960830000000     0.516620000000     0.638210000000     0.038473   
H128     H      0.970520000000     0.541380000000     0.869940000000     0.0394591  
H129     H      0.957920000000     0.444270000000     0.828270000000     0.0373243  
H130     H      0.943320000000     0.506140000000     0.823360000000     0.0387103  
H131     H      0.016100000000     0.514100000000     0.690890000000     0.0407142  
H132     H      0.020460000000     0.491420000000     0.636530000000     0.039933   
H133     H      0.030730000000     0.455300000000     0.860660000000     0.0375502  
H134     H      0.966020000000     0.557950000000     0.195070000000     0.0404652  
H135     H      0.945390000000     0.510180000000     0.305050000000     0.0341751  
H136     H      0.052290000000     0.539730000000     0.317010000000     0.0400799  
H137     H      0.026860000000     0.463020000000     0.108820000000     0.0386973  
H138     H      0.948090000000     0.546060000000     0.357760000000     0.0395529  
H139     H      0.023220000000     0.568120000000     0.149160000000     0.0347823  
H140     H      0.991030000000     0.461730000000     0.161320000000     0.0340018  
H141     H      0.011970000000     0.563930000000     0.083710000000     0.0413058  
H142     H      0.047490000000     0.526900000000     0.382850000000     0.0347614  
H143     H      0.962790000000     0.564670000000     0.258920000000     0.0442669  
H144     H      0.939730000000     0.501020000000     0.369670000000     0.0401813  
H145     H      0.046150000000     0.478490000000     0.207530000000     0.0439442  
H146     H      0.977010000000     0.479080000000     0.321850000000     0.0391148  
H147     H      0.981890000000     0.456810000000     0.096080000000     0.0394524  
H148     H      0.979180000000     0.555150000000     0.137190000000     0.0368596  
H149     H      0.960870000000     0.494120000000     0.144310000000     0.0383994  
H150     H      0.040510000000     0.482840000000     0.271420000000     0.0409455  
H151     H      0.038060000000     0.496310000000     0.329110000000     0.0398228  
H152     H      0.048060000000     0.538050000000     0.099300000000     0.0368369  
H153     H      0.278600000000     0.011250000000     0.446760000000     0.040951   
H154     H      0.156590000000     0.967140000000     0.428840000000     0.0348852  
H155     H      0.161760000000     0.020810000000     0.526980000000     0.0403649  
H156     H      0.359090000000     0.928100000000     0.525580000000     0.0393244  
H157     H      0.110900000000     0.011570000000     0.426780000000     0.0403191  
H158     H      0.309360000000     0.028380000000     0.517250000000     0.0351847  
H159     H      0.313720000000     0.922600000000     0.481140000000     0.0344687  
H160     H      0.374910000000     0.030980000000     0.519470000000     0.0415907  
H161     H      0.095440000000     0.021360000000     0.529800000000     0.0350558  
H162     H      0.215850000000     0.021630000000     0.437600000000     0.0448877  
H163     H      0.090630000000     0.968980000000     0.430670000000     0.0395569  
H164     H      0.254620000000     0.940460000000     0.532430000000     0.0445609  
H165     H      0.138520000000     0.946990000000     0.467880000000     0.0393899  
H166     H      0.379900000000     0.924540000000     0.483200000000     0.0392845  
H167     H      0.330390000000     0.018670000000     0.475680000000     0.0377916  
H168     H      0.332230000000     0.957320000000     0.454510000000     0.0383308  
H169     H      0.191870000000     0.948130000000     0.520950000000     0.041347   
H170     H      0.140690000000     0.978630000000     0.524250000000     0.0404992  
H171     H      0.355910000000     0.000490000000     0.550040000000     0.0370977  
H172     H      0.702570000000     0.034740000000     0.543850000000     0.0404578  
H173     H      0.816920000000     0.983020000000     0.554410000000     0.0342042  
H174     H      0.808540000000     0.008520000000     0.445800000000     0.0400514  
H175     H      0.608180000000     0.940130000000     0.494550000000     0.0393869  
H176     H      0.867330000000     0.019500000000     0.542840000000     0.0406686  
H177     H      0.654700000000     0.043850000000     0.489400000000     0.0348676  
H178     H      0.661010000000     0.939540000000     0.529010000000     0.0336886  
H179     H      0.589510000000     0.044510000000     0.504080000000     0.0407857  
H180     H      0.874340000000     0.998940000000     0.439390000000     0.0341267  
H181     H      0.766450000000     0.039000000000     0.540500000000     0.0446615  
H182     H      0.882250000000     0.974910000000     0.547680000000     0.0385667  
H183     H      0.704550000000     0.948070000000     0.470150000000     0.0438085  
H184     H      0.828790000000     0.951340000000     0.521090000000     0.0376314  
H185     H      0.595780000000     0.940030000000     0.540140000000     0.0387149  
H186     H      0.643440000000     0.034450000000     0.534670000000     0.036078   
H187     H      0.646700000000     0.975210000000     0.556860000000     0.037682   
H188     H      0.768600000000     0.950200000000     0.469450000000     0.0404101  
H189     H      0.825110000000     0.966460000000     0.459460000000     0.0387458  
H190     H      0.602220000000     0.017680000000     0.467490000000     0.0377186  
H191     H      0.026090000000     0.705500000000     0.468220000000     0.041439   
H192     H      0.975220000000     0.816850000000     0.450190000000     0.0344035  
H193     H      0.016350000000     0.827040000000     0.553690000000     0.0399229  
H194     H      0.936070000000     0.618200000000     0.529070000000     0.0373187  
H195     H      0.012290000000     0.868300000000     0.447980000000     0.0400843  
H196     H      0.037750000000     0.662340000000     0.533630000000     0.0351426  
H197     H      0.934400000000     0.670900000000     0.492790000000     0.0343014  
H198     H      0.036830000000     0.596920000000     0.523420000000     0.0417137  
H199     H      0.005810000000     0.893460000000     0.550190000000     0.0340941  
H200     H      0.032920000000     0.769360000000     0.463550000000     0.0447858  
H201     H      0.967320000000     0.882230000000     0.446250000000     0.0395284  
H202     H      0.951220000000     0.719680000000     0.552330000000     0.0438758  
H203     H      0.948670000000     0.834580000000     0.485270000000     0.038019   
H204     H      0.932070000000     0.605750000000     0.483500000000     0.040672   
H205     H      0.029480000000     0.649820000000     0.488430000000     0.03867    
H206     H      0.969210000000     0.655150000000     0.464670000000     0.0397555  
H207     H      0.955670000000     0.783610000000     0.545470000000     0.040362   
H208     H      0.972490000000     0.841010000000     0.543910000000     0.0386755  
H209     H      0.005770000000     0.611860000000     0.555600000000     0.0360319  
H210     H      0.015580000000     0.208240000000     0.425040000000     0.0412365  
H211     H      0.928110000000     0.327740000000     0.439250000000     0.0352251  
H212     H      0.034710000000     0.321210000000     0.471550000000     0.0396026  
H213     H      0.933310000000     0.113210000000     0.447520000000     0.0386031  
H214     H      0.956800000000     0.377780000000     0.412480000000     0.0379612  
H215     H      0.992580000000     0.175290000000     0.521900000000     0.0345213  
H216     H      0.957880000000     0.162570000000     0.416400000000     0.0352165  
H217     H      0.001370000000     0.109990000000     0.527080000000     0.0403271  
H218     H      0.036000000000     0.387260000000     0.479430000000     0.0335974  
H219     H      0.017990000000     0.272020000000     0.416960000000     0.0453993  
H220     H      0.929000000000     0.393420000000     0.447110000000     0.0412128  
H221     H      0.937290000000     0.221520000000     0.506180000000     0.0443326  
H222     H      0.940570000000     0.341980000000     0.482970000000     0.0382291  
H223     H      0.968570000000     0.097090000000     0.420810000000     0.0420993  
H224     H      0.021880000000     0.157800000000     0.488950000000     0.0396099  
H225     H      0.002110000000     0.150320000000     0.428440000000     0.0378271  
H226     H      0.942230000000     0.285390000000     0.500460000000     0.0411637  
H227     H      0.002110000000     0.338080000000     0.501040000000     0.0420435  
H228     H      0.956350000000     0.123040000000     0.521820000000     0.0396105  
N1       N      0.892590000000     0.502150000000     0.984160000000    -0.176015   
N2       N      0.818820000000     0.504580000000     0.982330000000    -0.110216   
N3       N      0.670060000000     0.516520000000     0.995220000000    -0.113266   
N4       N      0.596600000000     0.508950000000     0.995810000000    -0.172651   
N5       N      0.097760000000     0.494430000000     0.973530000000    -0.176265   
N6       N      0.171500000000     0.489960000000     0.971280000000    -0.110235   
N7       N      0.319430000000     0.475820000000     0.990710000000    -0.113251   
N8       N      0.392990000000     0.481510000000     0.993730000000    -0.17268    
N9       N      0.487960000000     0.894160000000     0.997350000000    -0.175545   
N10      N      0.479340000000     0.820520000000     0.994170000000    -0.110271   
N11      N      0.486350000000     0.671610000000     0.982460000000    -0.112996   
N12      N      0.486710000000     0.597690000000     0.987760000000    -0.172198   
N13      N      0.516160000000     0.096370000000     0.028060000000    -0.176388   
N14      N      0.520110000000     0.170630000000     0.028850000000    -0.110544   
N15      N      0.504620000000     0.318280000000     0.005790000000    -0.113004   
N16      N      0.503280000000     0.392270000000     0.001510000000    -0.172087   
N17      N      0.476390000000     0.987850000000     0.613060000000    -0.176144   
N18      N      0.475910000000     0.994550000000     0.687050000000    -0.110404   
N19      N      0.500230000000     0.017540000000     0.833730000000    -0.113447   
N20      N      0.504080000000     0.014420000000     0.907760000000    -0.172808   
N21      N      0.499740000000     0.975540000000     0.110530000000    -0.176031   
N22      N      0.498860000000     0.964480000000     0.184020000000    -0.110262   
N23      N      0.503390000000     0.974200000000     0.334180000000    -0.113036   
N24      N      0.492860000000     0.976640000000     0.407470000000    -0.172464   
N25      N      0.975520000000     0.470500000000     0.581910000000    -0.17601    
N26      N      0.974820000000     0.465160000000     0.656240000000    -0.110312   
N27      N      0.991190000000     0.483370000000     0.804990000000    -0.112643   
N28      N      0.990870000000     0.489380000000     0.879010000000    -0.17163    
N29      N      0.991460000000     0.520720000000     0.381810000000    -0.175502   
N30      N      0.997860000000     0.529500000000     0.308030000000    -0.110271   
N31      N      0.011390000000     0.513990000000     0.158420000000    -0.112935   
N32      N      0.003940000000     0.507680000000     0.084650000000    -0.17181    
N33      N      0.088680000000     0.001670000000     0.476990000000    -0.175477   
N34      N      0.162670000000     0.997160000000     0.475820000000    -0.110253   
N35      N      0.307820000000     0.974240000000     0.502240000000    -0.113162   
N36      N      0.381630000000     0.975690000000     0.507420000000    -0.171873   
N37      N      0.883780000000     0.995810000000     0.495100000000    -0.175591   
N38      N      0.810110000000     0.000710000000     0.501580000000    -0.110029   
N39      N      0.660450000000     0.990000000000     0.504330000000    -0.112719   
N40      N      0.587060000000     0.988520000000     0.512430000000    -0.171657   
N41      N      0.994580000000     0.893050000000     0.494740000000    -0.175838   
N42      N      0.000440000000     0.819070000000     0.500260000000    -0.110106   
N43      N      0.985000000000     0.669990000000     0.516620000000    -0.113376   
N44      N      0.982370000000     0.596190000000     0.507620000000    -0.172163   
N45      N      0.984820000000     0.395550000000     0.457230000000    -0.175804   
N46      N      0.982380000000     0.321340000000     0.451250000000    -0.110219   
N47      N      0.971000000000     0.172090000000     0.470160000000    -0.112747   
N48      N      0.978090000000     0.098420000000     0.476820000000    -0.17158    
Ni1      Ni     0.989070000000     0.998790000000     0.517160000000     0.996931   
Ni2      Ni     0.983510000000     0.992790000000     0.454990000000     0.99764    
Ni3      Ni     0.952470000000     0.496340000000     0.479390000000     0.996176   
Ni4      Ni     0.014660000000     0.495640000000     0.484630000000     0.998664   
Ni5      Ni     0.486430000000     0.950780000000     0.512090000000     0.993298   
Ni6      Ni     0.482210000000     0.013250000000     0.508350000000     1.00223    
Ni7      Ni     0.532900000000     0.991300000000     0.009070000000     1.00341    
Ni8      Ni     0.471110000000     0.000210000000     0.009520000000     0.998963   
Ni9      Ni     0.994300000000     0.467380000000     0.984800000000     1.00011    
Ni10     Ni     0.996390000000     0.529850000000     0.979090000000     0.998607   
Ni11     Ni     0.495400000000     0.492950000000     0.963380000000     0.994281   
Ni12     Ni     0.494260000000     0.497010000000     0.025840000000     1.00091    
O1       O      0.984840000000     0.048740000000     0.510670000000    -0.449194   
O2       O      0.993520000000     0.948420000000     0.519400000000    -0.449126   
O3       O      0.038600000000     0.002830000000     0.510380000000    -0.450885   
O4       O      0.938850000000     0.994720000000     0.519840000000    -0.448915   
O5       O      0.933720000000     0.992620000000     0.461480000000    -0.450374   
O6       O      0.033980000000     0.993580000000     0.452680000000    -0.447565   
O7       O      0.984920000000     0.942780000000     0.461700000000    -0.451416   
O8       O      0.981860000000     0.043210000000     0.452370000000    -0.449689   
O9       O      0.954970000000     0.447010000000     0.468450000000    -0.449984   
O10      O      0.954150000000     0.545680000000     0.490170000000    -0.450306   
O11      O      0.958510000000     0.506830000000     0.430470000000    -0.451229   
O12      O      0.950530000000     0.485790000000     0.528930000000    -0.448985   
O13      O      0.008630000000     0.481850000000     0.532750000000    -0.45111    
O14      O      0.016550000000     0.509340000000     0.435840000000    -0.447734   
O15      O      0.011930000000     0.544290000000     0.498200000000    -0.449935   
O16      O      0.013250000000     0.446970000000     0.471370000000    -0.449469   
O17      O      0.490810000000     0.950160000000     0.461800000000    -0.450814   
O18      O      0.482380000000     0.955620000000     0.562210000000    -0.449041   
O19      O      0.436050000000     0.949460000000     0.507780000000    -0.446284   
O20      O      0.536250000000     0.956250000000     0.516020000000    -0.449193   
O21      O      0.532600000000     0.014400000000     0.509280000000    -0.4499     
O22      O      0.432370000000     0.007990000000     0.507720000000    -0.45244    
O23      O      0.480480000000     0.014130000000     0.558730000000    -0.452935   
O24      O      0.483670000000     0.008250000000     0.458140000000    -0.451889   
O25      O      0.530080000000     0.984060000000     0.058960000000    -0.450856   
O26      O      0.531500000000     0.998420000000     0.959110000000    -0.452277   
O27      O      0.537830000000     0.041220000000     0.015900000000    -0.449581   
O28      O      0.523920000000     0.942260000000     0.002650000000    -0.453771   
O29      O      0.466270000000     0.950740000000     0.999390000000    -0.446894   
O30      O      0.480090000000     0.048690000000     0.020030000000    -0.452549   
O31      O      0.474370000000     0.010320000000     0.960170000000    -0.452083   
O32      O      0.472010000000     0.990030000000     0.058900000000    -0.451417   
O33      O      0.997290000000     0.473930000000     0.034850000000    -0.450222   
O34      O      0.991650000000     0.464940000000     0.934380000000    -0.449547   
O35      O      0.044390000000     0.467450000000     0.981230000000    -0.452704   
O36      O      0.944300000000     0.471380000000     0.987630000000    -0.450396   
O37      O      0.946210000000     0.529680000000     0.981680000000    -0.452093   
O38      O      0.046420000000     0.525860000000     0.976550000000    -0.450114   
O39      O      0.993050000000     0.523320000000     0.929060000000    -0.449295   
O40      O      0.999800000000     0.532270000000     0.029480000000    -0.450179   
O41      O      0.445910000000     0.484490000000     0.965160000000    -0.451228   
O42      O      0.544810000000     0.501710000000     0.965910000000    -0.451384   
O43      O      0.503610000000     0.443310000000     0.968940000000    -0.448888   
O44      O      0.487100000000     0.542870000000     0.962080000000    -0.448753   
O45      O      0.491910000000     0.547090000000     0.020350000000    -0.452372   
O46      O      0.496710000000     0.446650000000     0.027050000000    -0.452185   
O47      O      0.544460000000     0.499630000000     0.024490000000    -0.451089   
O48      O      0.444130000000     0.494160000000     0.022950000000    -0.451098   
S1       S      0.869340000000     0.447040000000     0.954360000000    -0.012748   
S2       S      0.121480000000     0.543110000000     0.934450000000    -0.0137885  
S3       S      0.429850000000     0.877780000000     0.025500000000    -0.0108146  
S4       S      0.573570000000     0.114610000000     0.056420000000    -0.0153899  
S5       S      0.443590000000     0.936100000000     0.639520000000    -0.0141383  
S6       S      0.524790000000     0.914960000000     0.122760000000    -0.0166552  
S7       S      0.996720000000     0.409600000000     0.598950000000    -0.019517   
S8       S      0.022880000000     0.578370000000     0.370500000000    -0.0173475  
S9       S      0.113720000000     0.061660000000     0.491790000000    -0.0178577  
S10      S      0.863610000000     0.051080000000     0.463570000000    -0.015964   
S11      S      0.054040000000     0.878890000000     0.520900000000    -0.0165603  
S12      S      0.037520000000     0.374540000000     0.422300000000    -0.0154688  


