data_structure

_audit_creation_method RASPA-1.0
_audit_creation_date 2023-5-25
_audit_author_name 'Poobodin Mano'

_cell_length_a    37.9754
_cell_length_b    37.8717
_cell_length_c    38.0097
_cell_angle_alpha 90
_cell_angle_beta  90
_cell_angle_gamma 90
_cell_volume      54665.3

_symmetry_cell_setting          triclinic
_symmetry_space_group_name_Hall 'P 1'
_symmetry_space_group_name_H-M  'P 1'
_symmetry_Int_Tables_number     1

_symmetry_equiv_pos_as_xyz 'x,y,z'

loop_
_atom_site_label
_atom_site_type_symbol
_atom_site_fract_x
_atom_site_fract_y
_atom_site_fract_z
_atom_site_charge
C1       C      0.996210000000     0.052210000000     0.507260000000     0.433852   
C2       C      0.981680000000     0.918380000000     0.499650000000     0.440841   
C3       C      0.056010000000     0.978080000000     0.500290000000     0.435926   
C4       C      0.922580000000     0.992470000000     0.506530000000     0.441684   
C5       C      0.018480000000     0.419210000000     0.516970000000     0.446112   
C6       C      0.001550000000     0.550610000000     0.492140000000     0.427744   
C7       C      0.010530000000     0.472000000000     0.438330000000     0.434785   
C8       C      0.008930000000     0.495570000000     0.570490000000     0.433924   
C9       C      0.553810000000     0.998170000000     0.492520000000     0.430794   
C10      C      0.421090000000     0.002230000000     0.471580000000     0.436984   
C11      C      0.476200000000     0.004170000000     0.548700000000     0.435418   
C12      C      0.498680000000     0.996630000000     0.416450000000     0.43192    
C13      C      0.490620000000     0.996060000000     0.048340000000     0.433763   
C14      C      0.475350000000     0.016490000000     0.916410000000     0.434062   
C15      C      0.477230000000     0.072220000000     0.995030000000     0.436367   
C16      C      0.488710000000     0.940370000000     0.970130000000     0.435194   
C17      C      0.061640000000     0.482610000000     0.003800000000     0.432973   
C18      C      0.927510000000     0.491430000000     0.007460000000     0.434103   
C19      C      0.995800000000     0.478150000000     0.071810000000     0.437209   
C20      C      0.992650000000     0.496190000000     0.938720000000     0.429218   
C21      C      0.425690000000     0.509230000000     0.972570000000     0.429322   
C22      C      0.559740000000     0.505280000000     0.982130000000     0.427975   
C23      C      0.489810000000     0.439840000000     0.985630000000     0.428803   
C24      C      0.496080000000     0.573410000000     0.968990000000     0.42843    
C25      C      0.833880000000     0.471490000000     0.987700000000    -0.0295341  
C26      C      0.649190000000     0.512670000000     0.021990000000    -0.0308097  
C27      C      0.617510000000     0.498600000000     0.953450000000    -0.00417851 
C28      C      0.611800000000     0.525490000000     0.014730000000    -0.00506224 
C29      C      0.730310000000     0.527720000000     0.974450000000    -0.0510353  
C30      C      0.756890000000     0.479680000000     0.023470000000    -0.0501905  
C31      C      0.706900000000     0.507120000000     0.994220000000     0.0627343  
C32      C      0.654540000000     0.486580000000     0.964070000000    -0.0310616  
C33      C      0.780250000000     0.501180000000     0.004620000000     0.0676926  
C34      C      0.837430000000     0.530830000000     0.011140000000    -0.0190999  
C35      C      0.766680000000     0.524420000000     0.979030000000    -0.0557416  
C36      C      0.874720000000     0.524870000000     0.025680000000    -0.0156963  
C37      C      0.870220000000     0.461720000000     0.001930000000    -0.0017191  
C38      C      0.720600000000     0.482030000000     0.017930000000    -0.0535064  
C39      C      0.153350000000     0.514000000000     0.002640000000    -0.0262788  
C40      C      0.335810000000     0.484240000000     0.946030000000    -0.0311796  
C41      C      0.369600000000     0.529830000000     0.997880000000    -0.00480675 
C42      C      0.371380000000     0.501490000000     0.937530000000    -0.00427827 
C43      C      0.253730000000     0.514210000000     0.954480000000    -0.0513827  
C44      C      0.233500000000     0.463870000000     0.004290000000    -0.0519299  
C45      C      0.279580000000     0.496390000000     0.973860000000     0.0618645  
C46      C      0.334210000000     0.511810000000     0.003850000000    -0.0305497  
C47      C      0.207670000000     0.483650000000     0.986880000000     0.0671087  
C48      C      0.151010000000     0.455890000000     0.975540000000    -0.0202196  
C49      C      0.218030000000     0.507490000000     0.960350000000    -0.056677   
C50      C      0.115510000000     0.447360000000     0.993290000000    -0.0104501  
C51      C      0.118500000000     0.508290000000     0.021640000000    -0.0039006  
C52      C      0.269190000000     0.469610000000     0.997430000000    -0.0530952  
C53      C      0.471320000000     0.844240000000     0.974930000000    -0.0274162  
C54      C      0.505700000000     0.661880000000     0.925820000000    -0.0307497  
C55      C      0.495620000000     0.632220000000     0.996000000000    -0.00387048 
C56      C      0.515720000000     0.623280000000     0.932400000000    -0.00519616 
C57      C      0.528940000000     0.741610000000     0.975150000000    -0.0511416  
C58      C      0.480780000000     0.773120000000     0.929380000000    -0.0511088  
C59      C      0.507520000000     0.720220000000     0.954000000000     0.0625995  
C60      C      0.485350000000     0.669720000000     0.985600000000    -0.0309052  
C61      C      0.502300000000     0.794490000000     0.950450000000     0.0674659  
C62      C      0.530020000000     0.853070000000     0.951610000000    -0.0195953  
C63      C      0.525990000000     0.778340000000     0.974000000000    -0.0560228  
C64      C      0.522680000000     0.891940000000     0.942780000000    -0.0120056  
C65      C      0.460390000000     0.882090000000     0.966440000000    -0.0026249  
C66      C      0.482760000000     0.736350000000     0.931550000000    -0.0538125  
C67      C      0.448380000000     0.164380000000     0.987890000000    -0.0279415  
C68      C      0.484530000000     0.351100000000     0.029200000000    -0.0306226  
C69      C      0.485300000000     0.381250000000     0.958490000000    -0.00377353 
C70      C      0.499360000000     0.388360000000     0.023990000000    -0.00532579 
C71      C      0.502580000000     0.269750000000     0.978470000000    -0.0508313  
C72      C      0.456510000000     0.241290000000     0.028210000000    -0.0509602  
C73      C      0.483780000000     0.292530000000     0.000660000000     0.0621381  
C74      C      0.469550000000     0.345350000000     0.967670000000    -0.0309426  
C75      C      0.476310000000     0.218610000000     0.006850000000     0.0674463  
C76      C      0.507750000000     0.162700000000     0.012270000000    -0.018266   
C77      C      0.498330000000     0.233240000000     0.980840000000    -0.0565462  
C78      C      0.503490000000     0.124200000000     0.023760000000    -0.0126774  
C79      C      0.441170000000     0.126280000000     0.999470000000    -0.00228366 
C80      C      0.459580000000     0.277940000000     0.024780000000    -0.0530418  
C81      C      0.483450000000     0.035410000000     0.640730000000    -0.0275797  
C82      C      0.434990000000     0.013530000000     0.825780000000    -0.028737   
C83      C      0.502860000000     0.028080000000     0.859190000000    -0.00480473 
C84      C      0.439760000000     0.003400000000     0.864410000000    -0.00492842 
C85      C      0.489120000000     0.990730000000     0.749820000000    -0.0508581  
C86      C      0.440180000000     0.033060000000     0.714770000000    -0.0504792  
C87      C      0.466350000000     0.012210000000     0.769410000000     0.0638644  
C88      C      0.493480000000     0.037710000000     0.821250000000    -0.0286183  
C89      C      0.462170000000     0.010700000000     0.695250000000     0.0667691  
C90      C      0.461450000000     0.975310000000     0.641210000000    -0.019687   
C91      C      0.487620000000     0.990390000000     0.713090000000    -0.0550032  
C92      C      0.451120000000     0.976890000000     0.602160000000    -0.0117877  
C93      C      0.473090000000     0.040660000000     0.602210000000    -0.00261753 
C94      C      0.442590000000     0.034400000000     0.751450000000    -0.0542203  
C95      C      0.506930000000     0.027200000000     0.324490000000    -0.0290303  
C96      C      0.472180000000     0.974360000000     0.143050000000    -0.029476   
C97      C      0.528250000000     0.004650000000     0.099970000000    -0.00656409 
C98      C      0.463030000000     0.987060000000     0.105990000000    -0.00391813 
C99      C      0.479620000000     0.014240000000     0.216260000000    -0.0497845  
C100     C      0.530410000000     0.972150000000     0.248830000000    -0.0520378  
C101     C      0.502670000000     0.994270000000     0.195420000000     0.0636165  
C102     C      0.532850000000     0.992310000000     0.138000000000    -0.0279127  
C103     C      0.508210000000     0.993150000000     0.269580000000     0.0682487  
C104     C      0.492910000000     0.964640000000     0.324610000000    -0.0199874  
C105     C      0.481710000000     0.013160000000     0.252930000000    -0.0558942  
C106     C      0.505370000000     0.960270000000     0.362880000000    -0.0138571  
C107     C      0.519840000000     0.026050000000     0.362510000000    -0.00238884 
C108     C      0.527320000000     0.972050000000     0.212170000000    -0.0514724  
C109     C      0.974790000000     0.506170000000     0.661910000000    -0.0300731  
C110     C      0.014600000000     0.529960000000     0.850030000000    -0.0312378  
C111     C      0.971370000000     0.474630000000     0.881500000000    -0.00479988 
C112     C      0.999400000000     0.535220000000     0.887080000000    -0.00421103 
C113     C      0.981360000000     0.531470000000     0.770270000000    -0.0512016  
C114     C      0.025760000000     0.480770000000     0.740690000000    -0.0544883  
C115     C      0.998850000000     0.507540000000     0.792260000000     0.0617255  
C116     C      0.987400000000     0.472090000000     0.844840000000    -0.0308656  
C117     C      0.006270000000     0.502960000000     0.718460000000     0.066996   
C118     C      0.038440000000     0.510690000000     0.663440000000    -0.0203809  
C119     C      0.985510000000     0.529820000000     0.733760000000    -0.0558947  
C120     C      0.042040000000     0.494720000000     0.626310000000    -0.0174558  
C121     C      0.975030000000     0.489950000000     0.625210000000    -0.00571789 
C122     C      0.022790000000     0.483470000000     0.777220000000    -0.0510167  
C123     C      0.031860000000     0.480950000000     0.343930000000    -0.029525   
C124     C      0.995070000000     0.433940000000     0.160190000000    -0.0298211  
C125     C      0.000120000000     0.504860000000     0.130450000000    -0.00400501 
C126     C      0.981950000000     0.440240000000     0.122590000000    -0.00382616 
C127     C      0.975260000000     0.482600000000     0.241160000000    -0.0505645  
C128     C      0.025270000000     0.436710000000     0.269650000000    -0.0495621  
C129     C      0.995970000000     0.462030000000     0.218540000000     0.064469   
C130     C      0.013640000000     0.494620000000     0.166850000000    -0.029424   
C131     C      0.003990000000     0.456730000000     0.292230000000     0.067435   
C132     C      0.975600000000     0.451020000000     0.349610000000    -0.0190427  
C133     C      0.979610000000     0.480600000000     0.277570000000    -0.0548131  
C134     C      0.982640000000     0.441470000000     0.388190000000    -0.0152172  
C135     C      0.042300000000     0.471840000000     0.381750000000    -0.00159079 
C136     C      0.021860000000     0.439720000000     0.233130000000    -0.0534307  
C137     C      0.149350000000     0.996090000000     0.519680000000    -0.0273769  
C138     C      0.332020000000     0.966260000000     0.465380000000    -0.0318079  
C139     C      0.365050000000     0.035540000000     0.471210000000    -4.09002e-05
C140     C      0.367890000000     0.972800000000     0.448550000000    -0.00136056 
C141     C      0.249600000000     0.014270000000     0.456930000000    -0.0514204  
C142     C      0.227870000000     0.964620000000     0.506740000000    -0.049248   
C143     C      0.274960000000     0.994640000000     0.475210000000     0.0637528  
C144     C      0.329130000000     0.026570000000     0.487460000000    -0.0323218  
C145     C      0.202500000000     0.982860000000     0.487090000000     0.0667198  
C146     C      0.144600000000     0.974020000000     0.459850000000    -0.0191542  
C147     C      0.213710000000     0.009070000000     0.463230000000    -0.0551409  
C148     C      0.108040000000     0.958190000000     0.466740000000    -0.0122137  
C149     C      0.113750000000     0.980130000000     0.529940000000    -0.00296668 
C150     C      0.263760000000     0.970900000000     0.501500000000    -0.0536695  
C151     C      0.830030000000     0.976190000000     0.533500000000    -0.0303979  
C152     C      0.647530000000     0.028350000000     0.496200000000    -0.0301238  
C153     C      0.607280000000     0.963060000000     0.503290000000    -0.00564924 
C154     C      0.610530000000     0.026630000000     0.480690000000    -0.00479437 
C155     C      0.722720000000     0.971190000000     0.481580000000    -0.0490939  
C156     C      0.753620000000     0.017060000000     0.530150000000    -0.049952   
C157     C      0.701220000000     0.993190000000     0.502000000000     0.0637012  
C158     C      0.644410000000     0.968500000000     0.518160000000    -0.0295817  
C159     C      0.775160000000     0.996640000000     0.508210000000     0.0685627  
C160     C      0.830270000000     0.002510000000     0.475400000000    -0.0200349  
C161     C      0.759340000000     0.972300000000     0.485040000000    -0.0547787  
C162     C      0.868320000000     0.015450000000     0.479200000000    -0.0128123  
C163     C      0.867760000000     0.988400000000     0.540980000000     0.00246812 
C164     C      0.716960000000     0.014930000000     0.527670000000    -0.0528321  
C165     C      0.995310000000     0.823170000000     0.518120000000    -0.0304344  
C166     C      0.956720000000     0.637380000000     0.481730000000    -0.0307238  
C167     C      0.028190000000     0.609700000000     0.486810000000    -0.00462262 
C168     C      0.964210000000     0.599360000000     0.470110000000    -0.00552968 
C169     C      0.001940000000     0.720150000000     0.459600000000    -0.0496039  
C170     C      0.955870000000     0.747780000000     0.509770000000    -0.0502918  
C171     C      0.982620000000     0.696970000000     0.480930000000     0.0625841  
C172     C      0.017530000000     0.646710000000     0.498810000000    -0.030778   
C173     C      0.974730000000     0.770920000000     0.488000000000     0.0683033  
C174     C      0.969990000000     0.829150000000     0.459940000000    -0.0196582  
C175     C      0.998680000000     0.756700000000     0.463470000000    -0.05537    
C176     C      0.958010000000     0.867240000000     0.467010000000    -0.0134284  
C177     C      0.983720000000     0.860350000000     0.528840000000     0.00191198 
C178     C      0.960190000000     0.711220000000     0.506870000000    -0.0528247  
C179     C      0.045470000000     0.327870000000     0.502490000000    -0.0338236  
C180     C      0.003490000000     0.142710000000     0.545960000000    -0.0290781  
C181     C      0.004300000000     0.109040000000     0.476890000000    -0.00500053 
C182     C      0.986580000000     0.106330000000     0.541700000000    -0.00572223 
C183     C      0.988920000000     0.223790000000     0.496430000000    -0.0491227  
C184     C      0.041550000000     0.248890000000     0.541280000000    -0.0497312  
C185     C      0.009120000000     0.199670000000     0.515780000000     0.0641235  
C186     C      0.021080000000     0.144930000000     0.484820000000    -0.029423   
C187     C      0.020130000000     0.272990000000     0.523300000000     0.0671058  
C188     C      0.991200000000     0.328840000000     0.536840000000    -0.0219823  
C189     C      0.994710000000     0.260090000000     0.499560000000    -0.0540558  
C190     C      0.998180000000     0.366630000000     0.549480000000    -0.0109514  
C191     C      0.055040000000     0.365360000000     0.514390000000     0.00200994 
C192     C      0.036650000000     0.212520000000     0.537130000000    -0.0532403  
H1       H      0.703440000000     0.464650000000     0.032600000000     0.044177   
H2       H      0.817740000000     0.446960000000     0.986500000000     0.037397   
H3       H      0.823590000000     0.551100000000     0.027230000000     0.050075   
H4       H      0.619770000000     0.522630000000     0.936770000000     0.0405246  
H5       H      0.866960000000     0.446080000000     0.026450000000     0.044221   
H6       H      0.661690000000     0.530920000000     0.041250000000     0.0395389  
H7       H      0.671010000000     0.485150000000     0.939880000000     0.0363687  
H8       H      0.596000000000     0.522190000000     0.039150000000     0.0439379  
H9       H      0.890260000000     0.549100000000     0.020010000000     0.0562827  
H10      H      0.766950000000     0.460880000000     0.042450000000     0.0547464  
H11      H      0.883420000000     0.444410000000     0.982300000000     0.0414342  
H12      H      0.720240000000     0.546420000000     0.955380000000     0.0468204  
H13      H      0.836280000000     0.482160000000     0.960480000000     0.039052   
H14      H      0.605140000000     0.477550000000     0.937200000000     0.0409998  
H15      H      0.647650000000     0.485940000000     0.034060000000     0.0397319  
H16      H      0.653360000000     0.459670000000     0.975850000000     0.0400536  
H17      H      0.783920000000     0.540390000000     0.962940000000     0.0436455  
H18      H      0.839920000000     0.541450000000     0.983940000000     0.036588   
H19      H      0.612710000000     0.554230000000     0.008800000000     0.0394044  
H20      H      0.858950000000     0.467270000000     0.088370000000     0.152955   
H21      H      0.288480000000     0.454240000000     0.011690000000     0.043851   
H22      H      0.169830000000     0.532210000000     0.018700000000     0.0388604  
H23      H      0.165830000000     0.430920000000     0.971020000000     0.0475365  
H24      H      0.364650000000     0.557480000000     0.989340000000     0.0377302  
H25      H      0.124090000000     0.500460000000     0.049260000000     0.0534505  
H26      H      0.321090000000     0.480580000000     0.920960000000     0.0369997  
H27      H      0.318200000000     0.528560000000     0.021840000000     0.037523   
H28      H      0.387260000000     0.482800000000     0.921460000000     0.0410466  
H29      H      0.099150000000     0.432870000000     0.973770000000     0.0537716  
H30      H      0.225920000000     0.444660000000     0.023990000000     0.0591199  
H31      H      0.104240000000     0.533900000000     0.022670000000     0.0442229  
H32      H      0.261310000000     0.534130000000     0.935480000000     0.0461788  
H33      H      0.147860000000     0.526840000000     0.976880000000     0.0379239  
H34      H      0.384000000000     0.531040000000     0.023310000000     0.0430835  
H35      H      0.340140000000     0.457760000000     0.958040000000     0.0405719  
H36      H      0.339050000000     0.485960000000     0.016920000000     0.0402798  
H37      H      0.198720000000     0.522080000000     0.945330000000     0.0431626  
H38      H      0.146130000000     0.468100000000     0.949320000000     0.0381001  
H39      H      0.366630000000     0.525580000000     0.921490000000     0.0401022  
H40      H      0.155690000000     0.416170000000     0.075670000000     0.157192   
H41      H      0.464810000000     0.720830000000     0.915810000000     0.0434153  
H42      H      0.447310000000     0.827370000000     0.973930000000     0.0374295  
H43      H      0.550380000000     0.842360000000     0.933430000000     0.0491885  
H44      H      0.521060000000     0.633060000000     0.010490000000     0.0408453  
H45      H      0.444740000000     0.882150000000     0.941720000000     0.0541269  
H46      H      0.523160000000     0.672700000000     0.904920000000     0.0383455  
H47      H      0.486920000000     0.686600000000     0.009540000000     0.0361574  
H48      H      0.508050000000     0.607450000000     0.908980000000     0.0430422  
H49      H      0.546590000000     0.907270000000     0.949960000000     0.0556677  
H50      H      0.461740000000     0.785110000000     0.911850000000     0.05444    
H51      H      0.442890000000     0.891650000000     0.987900000000     0.0419624  
H52      H      0.547380000000     0.729630000000     0.993320000000     0.0469103  
H53      H      0.482240000000     0.842850000000     0.002110000000     0.03888    
H54      H      0.475290000000     0.621800000000     0.014350000000     0.0412781  
H55      H      0.478050000000     0.662660000000     0.916140000000     0.0386529  
H56      H      0.457640000000     0.670250000000     0.975960000000     0.0398127  
H57      H      0.542090000000     0.793820000000     0.991650000000     0.0439597  
H58      H      0.540970000000     0.851960000000     0.978750000000     0.0370213  
H59      H      0.544840000000     0.621500000000     0.934870000000     0.0393684  
H60      H      0.481820000000     0.876130000000     0.856580000000     0.157079   
H61      H      0.443600000000     0.294500000000     0.041560000000     0.0435601  
H62      H      0.422970000000     0.179030000000     0.988010000000     0.0383784  
H63      H      0.526540000000     0.176330000000     0.030200000000     0.0481952  
H64      H      0.511790000000     0.377190000000     0.946680000000     0.0408866  
H65      H      0.426630000000     0.126690000000     0.024850000000     0.0549795  
H66      H      0.498530000000     0.338540000000     0.051680000000     0.0382938  
H67      H      0.471320000000     0.328270000000     0.943890000000     0.0354832  
H68      H      0.490820000000     0.405130000000     0.046440000000     0.0432989  
H69      H      0.529090000000     0.110760000000     0.019000000000     0.055971   
H70      H      0.438760000000     0.230460000000     0.047730000000     0.0555339  
H71      H      0.424060000000     0.113330000000     0.979520000000     0.0410963  
H72      H      0.520560000000     0.280460000000     0.959090000000     0.0456207  
H73      H      0.458940000000     0.164570000000     0.960540000000     0.03909    
H74      H      0.468370000000     0.393900000000     0.938190000000     0.040896   
H75      H      0.456090000000     0.353300000000     0.036010000000     0.0386271  
H76      H      0.441190000000     0.348220000000     0.974620000000     0.0401787  
H77      H      0.512880000000     0.216660000000     0.962830000000     0.0433525  
H78      H      0.519480000000     0.162580000000     0.985450000000     0.0374086  
H79      H      0.528590000000     0.386940000000     0.024950000000     0.0396126  
H80      H      0.464470000000     0.149510000000     0.108720000000     0.157386   
H81      H      0.425530000000     0.052340000000     0.765540000000     0.0434686  
H82      H      0.482320000000     0.061570000000     0.654060000000     0.0377439  
H83      H      0.444110000000     0.956280000000     0.655290000000     0.0497673  
H84      H      0.521120000000     0.005110000000     0.858820000000     0.0577305  
H85      H      0.447770000000     0.055350000000     0.601060000000     0.0544032  
H86      H      0.415610000000     0.995100000000     0.813700000000     0.0395603  
H87      H      0.518240000000     0.038060000000     0.805550000000     0.0377199  
H88      H      0.415720000000     0.011360000000     0.879130000000     0.0437208  
H89      H      0.458500000000     0.951140000000     0.590180000000     0.0563567  
H90      H      0.421200000000     0.049660000000     0.701390000000     0.0542026  
H91      H      0.493490000000     0.057380000000     0.589410000000     0.0420358  
H92      H      0.508240000000     0.974260000000     0.763160000000     0.0516063  
H93      H      0.511010000000     0.025480000000     0.642420000000     0.0391793  
H94      H      0.517410000000     0.050500000000     0.871300000000     0.0417421  
H95      H      0.423920000000     0.040730000000     0.824500000000     0.0372733  
H96      H      0.481810000000     0.064690000000     0.820210000000     0.0384946  
H97      H      0.506070000000     0.973960000000     0.698920000000     0.0446545  
H98      H      0.488870000000     0.965060000000     0.642800000000     0.0375121  
H99      H      0.441560000000     0.974140000000     0.866280000000     0.0529912  
H100     H      0.364070000000     0.017090000000     0.615430000000     0.15553    
H101     H      0.544780000000     0.955240000000     0.197220000000     0.0453138  
H102     H      0.521470000000     0.048420000000     0.310360000000     0.0401743  
H103     H      0.496400000000     0.939150000000     0.310430000000     0.0477312  
H104     H      0.529230000000     0.033990000000     0.099440000000     0.0588141  
H105     H      0.549070000000     0.024970000000     0.362470000000     0.0428317  
H106     H      0.447860000000     0.975770000000     0.159350000000     0.0372106  
H107     H      0.554330000000     0.008060000000     0.150280000000     0.0418551  
H108     H      0.445250000000     0.967390000000     0.093450000000     0.0414147  
H109     H      0.486670000000     0.941890000000     0.376000000000     0.0550167  
H110     H      0.550260000000     0.955800000000     0.261200000000     0.0634016  
H111     H      0.512210000000     0.051160000000     0.375600000000     0.0434899  
H112     H      0.459900000000     0.030770000000     0.203910000000     0.0494056  
H113     H      0.478420000000     0.034000000000     0.324740000000     0.0389374  
H114     H      0.551090000000     0.995100000000     0.084320000000     0.0464181  
H115     H      0.480890000000     0.946270000000     0.142340000000     0.0400541  
H116     H      0.540980000000     0.964060000000     0.137810000000     0.0385046  
H117     H      0.463070000000     0.028600000000     0.267920000000     0.044063   
H118     H      0.464250000000     0.970950000000     0.324300000000     0.0384794  
H119     H      0.448140000000     0.012270000000     0.108030000000     0.0536579  
H120     H      0.591060000000     0.975170000000     0.351800000000     0.154588   
H121     H      0.038030000000     0.465640000000     0.793390000000     0.0451967  
H122     H      0.951160000000     0.496220000000     0.676120000000     0.038925   
H123     H      0.062650000000     0.504580000000     0.678810000000     0.04637    
H124     H      0.943380000000     0.482890000000     0.878860000000     0.0382212  
H125     H      0.971250000000     0.460930000000     0.627610000000     0.0527067  
H126     H      0.017420000000     0.556350000000     0.837450000000     0.0365913  
H127     H      0.970030000000     0.455270000000     0.828240000000     0.0392215  
H128     H      0.018980000000     0.549770000000     0.903330000000     0.041187   
H129     H      0.062890000000     0.509930000000     0.612410000000     0.0560599  
H130     H      0.042740000000     0.460680000000     0.729680000000     0.063933   
H131     H      0.952100000000     0.500610000000     0.610420000000     0.0455034  
H132     H      0.963680000000     0.550900000000     0.781470000000     0.0460346  
H133     H      0.972630000000     0.535380000000     0.659270000000     0.0383809  
H134     H      0.971500000000     0.447930000000     0.893650000000     0.0446333  
H135     H      0.041210000000     0.517710000000     0.851760000000     0.0408958  
H136     H      0.013560000000     0.459050000000     0.847130000000     0.0414879  
H137     H      0.971130000000     0.548520000000     0.717800000000     0.0429125  
H138     H      0.036510000000     0.539980000000     0.661490000000     0.0384898  
H139     H      0.975300000000     0.551780000000     0.885160000000     0.040564   
H140     H      0.021170000000     0.425130000000     0.665470000000     0.165653   
H141     H      0.039300000000     0.424460000000     0.216580000000     0.0460414  
H142     H      0.056360000000     0.483010000000     0.327970000000     0.0383139  
H143     H      0.957830000000     0.430980000000     0.337590000000     0.0509748  
H144     H      0.974380000000     0.518540000000     0.133400000000     0.05663    
H145     H      0.060090000000     0.448550000000     0.381410000000     0.0450451  
H146     H      0.979280000000     0.412260000000     0.172110000000     0.0415247  
H147     H      0.012510000000     0.518490000000     0.183930000000     0.0384173  
H148     H      0.989550000000     0.417210000000     0.106090000000     0.0502673  
H149     H      0.957480000000     0.445240000000     0.402670000000     0.0576165  
H150     H      0.044830000000     0.418960000000     0.280470000000     0.0558957  
H151     H      0.057400000000     0.494410000000     0.392830000000     0.0417448  
H152     H      0.956010000000     0.500710000000     0.230370000000     0.0512486  
H153     H      0.018380000000     0.507080000000     0.343330000000     0.0399842  
H154     H      0.018930000000     0.524010000000     0.118640000000     0.0457947  
H155     H      0.023060000000     0.425310000000     0.158940000000     0.0435126  
H156     H      0.041640000000     0.485960000000     0.165190000000     0.0428119  
H157     H      0.963760000000     0.497600000000     0.294030000000     0.0450052  
H158     H      0.961540000000     0.476800000000     0.349260000000     0.037902   
H159     H      0.952690000000     0.441300000000     0.122950000000     0.0484275  
H160     H      0.047910000000     0.383200000000     0.379400000000     0.152667   
H161     H      0.282490000000     0.956380000000     0.517290000000     0.0490312  
H162     H      0.166230000000     0.996890000000     0.543610000000     0.0385295  
H163     H      0.158190000000     0.958610000000     0.438920000000     0.0491298  
H164     H      0.360690000000     0.048860000000     0.445510000000     0.0390139  
H165     H      0.118300000000     0.954650000000     0.543720000000     0.0555654  
H166     H      0.317880000000     0.945880000000     0.449710000000     0.0407806  
H167     H      0.312970000000     0.051090000000     0.488080000000     0.0380136  
H168     H      0.383680000000     0.948120000000     0.449950000000     0.0472892  
H169     H      0.091790000000     0.963310000000     0.442950000000     0.0570199  
H170     H      0.219720000000     0.945190000000     0.526010000000     0.0555965  
H171     H      0.100610000000     0.998290000000     0.548830000000     0.0422114  
H172     H      0.257740000000     0.033420000000     0.437390000000     0.0469017  
H173     H      0.145650000000     0.023690000000     0.510210000000     0.039217   
H174     H      0.379010000000     0.054320000000     0.488870000000     0.0462259  
H175     H      0.336380000000     0.955870000000     0.492420000000     0.0509649  
H176     H      0.332700000000     0.017250000000     0.515030000000     0.0525844  
H177     H      0.195020000000     0.024870000000     0.448690000000     0.0436852  
H178     H      0.140730000000     0.001360000000     0.449840000000     0.0372796  
H179     H      0.363790000000     0.978970000000     0.420250000000     0.0379088  
H180     H      0.140470000000     0.874170000000     0.502660000000     0.157299   
H181     H      0.701190000000     0.031190000000     0.544940000000     0.0442656  
H182     H      0.815700000000     0.974590000000     0.559000000000     0.0393595  
H183     H      0.815650000000     0.020110000000     0.457030000000     0.0523051  
H184     H      0.609190000000     0.947190000000     0.478730000000     0.0541871  
H185     H      0.866870000000     0.012230000000     0.558000000000     0.0435519  
H186     H      0.663390000000     0.047270000000     0.480350000000     0.0405465  
H187     H      0.657890000000     0.942400000000     0.518920000000     0.0393591  
H188     H      0.597350000000     0.052420000000     0.485420000000     0.0443318  
H189     H      0.881620000000     0.010660000000     0.453580000000     0.0617744  
H190     H      0.765370000000     0.035130000000     0.548870000000     0.055506   
H191     H      0.881430000000     0.967270000000     0.556050000000     0.045432   
H192     H      0.711000000000     0.953530000000     0.462460000000     0.0519437  
H193     H      0.830350000000     0.949320000000     0.521560000000     0.0499793  
H194     H      0.591570000000     0.947490000000     0.522520000000     0.0447118  
H195     H      0.645650000000     0.038620000000     0.523580000000     0.0392322  
H196     H      0.642840000000     0.978750000000     0.545590000000     0.0401721  
H197     H      0.775090000000     0.955000000000     0.468780000000     0.049822   
H198     H      0.830970000000     0.975700000000     0.463400000000     0.0469023  
H199     H      0.612690000000     0.023230000000     0.451700000000     0.0442623  
H200     H      0.863100000000     0.076400000000     0.541230000000     0.15275    
H201     H      0.945840000000     0.694400000000     0.524810000000     0.043876   
H202     H      0.996320000000     0.806580000000     0.542280000000     0.0389767  
H203     H      0.952310000000     0.816660000000     0.440160000000     0.0515478  
H204     H      0.040030000000     0.611530000000     0.460110000000     0.0409656  
H205     H      0.959480000000     0.858400000000     0.545100000000     0.0432346  
H206     H      0.934560000000     0.647940000000     0.465720000000     0.0397094  
H207     H      0.040860000000     0.664300000000     0.496050000000     0.0373224  
H208     H      0.941310000000     0.582570000000     0.477350000000     0.0444657  
H209     H      0.963550000000     0.882740000000     0.442790000000     0.0606955  
H210     H      0.938070000000     0.758250000000     0.529450000000     0.0543355  
H211     H      0.004660000000     0.872090000000     0.545640000000     0.0473422  
H212     H      0.020120000000     0.709720000000     0.440250000000     0.0480712  
H213     H      0.022290000000     0.824080000000     0.506630000000     0.0496192  
H214     H      0.048800000000     0.599660000000     0.505040000000     0.0436709  
H215     H      0.948450000000     0.636850000000     0.509820000000     0.0397355  
H216     H      0.009820000000     0.646220000000     0.527100000000     0.0410022  
H217     H      0.014760000000     0.773570000000     0.447110000000     0.0477343  
H218     H      0.996880000000     0.830280000000     0.448330000000     0.0443803  
H219     H      0.966490000000     0.598880000000     0.440950000000     0.0399839  
H220     H      0.896010000000     0.855270000000     0.526840000000     0.152221   
H221     H      0.053760000000     0.194730000000     0.551360000000     0.0441312  
H222     H      0.070330000000     0.313070000000     0.497660000000     0.0402722  
H223     H      0.975480000000     0.314440000000     0.556990000000     0.0517293  
H224     H      0.978550000000     0.113420000000     0.463660000000     0.0555101  
H225     H      0.073680000000     0.363590000000     0.536870000000     0.0507212  
H226     H      0.989490000000     0.157080000000     0.567340000000     0.0405174  
H227     H      0.020560000000     0.160970000000     0.460280000000     0.0395192  
H228     H      0.992480000000     0.090440000000     0.565580000000     0.0452306  
H229     H      0.972400000000     0.380520000000     0.550210000000     0.0599515  
H230     H      0.061870000000     0.258390000000     0.558900000000     0.0503502  
H231     H      0.068700000000     0.379130000000     0.492430000000     0.0489626  
H232     H      0.968370000000     0.214350000000     0.479060000000     0.053331   
H233     H      0.030460000000     0.329030000000     0.477340000000     0.0554665  
H234     H      0.021550000000     0.094560000000     0.458130000000     0.0445637  
H235     H      0.031430000000     0.139020000000     0.554010000000     0.0387461  
H236     H      0.049100000000     0.141370000000     0.492750000000     0.0399975  
H237     H      0.978700000000     0.277910000000     0.484130000000     0.0510397  
H238     H      0.975020000000     0.330450000000     0.512480000000     0.0469601  
H239     H      0.957520000000     0.109680000000     0.540500000000     0.0526646  
H240     H      0.051950000000     0.323910000000     0.598390000000     0.154907   
N1       N      0.891590000000     0.493400000000     0.009800000000    -0.167677   
N2       N      0.817560000000     0.497440000000     0.011220000000    -0.10633    
N3       N      0.669510000000     0.512040000000     0.989030000000    -0.112214   
N4       N      0.595640000000     0.507080000000     0.984450000000    -0.171727   
N5       N      0.097570000000     0.480080000000     0.004740000000    -0.165547   
N6       N      0.171440000000     0.479970000000     0.997910000000    -0.10537    
N7       N      0.315880000000     0.507180000000     0.970010000000    -0.11266    
N8       N      0.389870000000     0.511700000000     0.970120000000    -0.172116   
N9       N      0.491340000000     0.905300000000     0.961820000000    -0.165818   
N10      N      0.497350000000     0.832300000000     0.949000000000    -0.105282   
N11      N      0.509720000000     0.682380000000     0.958470000000    -0.112165   
N12      N      0.499730000000     0.609110000000     0.964950000000    -0.17186    
N13      N      0.474530000000     0.106970000000     0.004240000000    -0.166092   
N14      N      0.473440000000     0.180940000000     0.012320000000    -0.10486    
N15      N      0.489540000000     0.330150000000     0.996980000000    -0.111904   
N16      N      0.488960000000     0.403990000000     0.989870000000    -0.171727   
N17      N      0.468810000000     0.006520000000     0.583870000000    -0.165749   
N18      N      0.458870000000     0.010600000000     0.657330000000    -0.105294   
N19      N      0.468940000000     0.011320000000     0.807380000000    -0.109679   
N20      N      0.471690000000     0.018850000000     0.880660000000    -0.166765   
N21      N      0.506200000000     0.994700000000     0.381280000000    -0.167209   
N22      N      0.513050000000     0.992870000000     0.307360000000    -0.106049   
N23      N      0.499790000000     0.997170000000     0.157530000000    -0.109244   
N24      N      0.494600000000     0.993070000000     0.084010000000    -0.166979   
N25      N      0.008520000000     0.496680000000     0.606540000000    -0.166346   
N26      N      0.007080000000     0.496260000000     0.680890000000    -0.110606   
N27      N      0.990630000000     0.507630000000     0.829420000000    -0.112295   
N28      N      0.989970000000     0.501050000000     0.903200000000    -0.171905   
N29      N      0.011050000000     0.463530000000     0.403340000000    -0.167397   
N30      N      0.008870000000     0.453170000000     0.329790000000    -0.105961   
N31      N      0.991310000000     0.466460000000     0.181040000000    -0.110369   
N32      N      0.995250000000     0.473710000000     0.107530000000    -0.165954   
N33      N      0.091720000000     0.973690000000     0.498560000000    -0.165612   
N34      N      0.165750000000     0.974190000000     0.492360000000    -0.105101   
N35      N      0.311650000000     0.999380000000     0.466090000000    -0.111579   
N36      N      0.385680000000     0.003090000000     0.465290000000    -0.16906    
N37      N      0.886880000000     0.997100000000     0.508210000000    -0.164084   
N38      N      0.812870000000     0.001620000000     0.510000000000    -0.105447   
N39      N      0.663700000000     0.993080000000     0.495440000000    -0.110856   
N40      N      0.589730000000     0.996890000000     0.495020000000    -0.169106   
N41      N      0.976320000000     0.882670000000     0.497810000000    -0.164401   
N42      N      0.970020000000     0.808550000000     0.492810000000    -0.105583   
N43      N      0.988360000000     0.659380000000     0.476850000000    -0.111983   
N44      N      0.997430000000     0.585880000000     0.485270000000    -0.171123   
N45      N      0.023170000000     0.384530000000     0.525620000000    -0.162473   
N46      N      0.024670000000     0.310290000000     0.530010000000    -0.109813   
N47      N      0.000960000000     0.162460000000     0.512730000000    -0.110203   
N48      N      0.998280000000     0.088240000000     0.509240000000    -0.167117   
Ni1      Ni     0.990560000000     0.983310000000     0.534600000000     1.00032    
Ni2      Ni     0.988030000000     0.987180000000     0.472300000000     1.0154     
Ni3      Ni     0.978830000000     0.480820000000     0.504730000000     1.00986    
Ni4      Ni     0.040890000000     0.488730000000     0.503740000000     1.00574    
Ni5      Ni     0.488690000000     0.031640000000     0.481070000000     1.00345    
Ni6      Ni     0.486030000000     0.968950000000     0.484070000000     1.01231    
Ni7      Ni     0.513940000000     0.009760000000     0.979390000000     1.01057    
Ni8      Ni     0.451950000000     0.002960000000     0.985400000000     1.0037     
Ni9      Ni     0.996910000000     0.518150000000     0.009510000000     1.00734    
Ni10     Ni     0.992240000000     0.456050000000     0.000950000000     1.01122    
Ni11     Ni     0.494760000000     0.502470000000     0.946330000000     0.996721   
Ni12     Ni     0.490610000000     0.510820000000     0.008270000000     1.00699    
O1       O      0.993040000000     0.033870000000     0.535460000000    -0.447612   
O2       O      0.987760000000     0.933000000000     0.529490000000    -0.444907   
O3       O      0.040830000000     0.980980000000     0.530290000000    -0.44716    
O4       O      0.940110000000     0.985970000000     0.534650000000    -0.446226   
O5       O      0.938500000000     0.995290000000     0.476910000000    -0.439527   
O6       O      0.037760000000     0.978760000000     0.471920000000    -0.446352   
O7       O      0.979690000000     0.937250000000     0.471710000000    -0.439582   
O8       O      0.996310000000     0.036920000000     0.477130000000    -0.44444    
O9       O      0.987380000000     0.432400000000     0.516640000000    -0.441906   
O10      O      0.974650000000     0.530100000000     0.493170000000    -0.448196   
O11      O      0.981780000000     0.469310000000     0.455790000000    -0.446417   
O12      O      0.979920000000     0.491990000000     0.553660000000    -0.450182   
O13      O      0.038380000000     0.495150000000     0.553860000000    -0.438983   
O14      O      0.038990000000     0.481620000000     0.453800000000    -0.447461   
O15      O      0.032510000000     0.538080000000     0.497110000000    -0.450927   
O16      O      0.045290000000     0.438680000000     0.510340000000    -0.438249   
O17      O      0.538470000000     0.027880000000     0.487420000000    -0.450784   
O18      O      0.438450000000     0.031140000000     0.474750000000    -0.446502   
O19      O      0.482090000000     0.032360000000     0.530970000000    -0.449279   
O20      O      0.495730000000     0.026840000000     0.431410000000    -0.450887   
O21      O      0.495440000000     0.968210000000     0.434530000000    -0.439361   
O22      O      0.476220000000     0.973990000000     0.533360000000    -0.44292    
O23      O      0.436860000000     0.972430000000     0.474010000000    -0.445644   
O24      O      0.535740000000     0.969540000000     0.493590000000    -0.442066   
O25      O      0.517770000000     0.000200000000     0.028710000000    -0.448049   
O26      O      0.505960000000     0.019370000000     0.930440000000    -0.443738   
O27      O      0.507730000000     0.058510000000     0.990540000000    -0.450513   
O28      O      0.516050000000     0.960240000000     0.968900000000    -0.443686   
O29      O      0.458600000000     0.953470000000     0.978030000000    -0.449861   
O30      O      0.449400000000     0.053190000000     0.992290000000    -0.444935   
O31      O      0.448460000000     0.009460000000     0.935580000000    -0.448669   
O32      O      0.459640000000     0.996340000000     0.034840000000    -0.445424   
O33      O      0.046880000000     0.512650000000     0.008620000000    -0.452182   
O34      O      0.946330000000     0.519410000000     0.010680000000    -0.442564   
O35      O      0.997610000000     0.509390000000     0.058970000000    -0.444076   
O36      O      0.996380000000     0.522900000000     0.959170000000    -0.449648   
O37      O      0.990410000000     0.464970000000     0.951510000000    -0.45182    
O38      O      0.993550000000     0.451310000000     0.051300000000    -0.440348   
O39      O      0.942270000000     0.461340000000     0.002940000000    -0.451103   
O40      O      0.042810000000     0.454860000000     0.999080000000    -0.43797    
O41      O      0.444300000000     0.505080000000     0.944700000000    -0.44837    
O42      O      0.544960000000     0.500060000000     0.952200000000    -0.447838   
O43      O      0.491240000000     0.452870000000     0.954550000000    -0.451663   
O44      O      0.498120000000     0.552910000000     0.942180000000    -0.448869   
O45      O      0.491820000000     0.560500000000     0.999870000000    -0.452557   
O46      O      0.489850000000     0.460250000000     0.012590000000    -0.449413   
O47      O      0.540930000000     0.510320000000     0.009680000000    -0.451947   
O48      O      0.440570000000     0.511750000000     0.002730000000    -0.452345   
O49      O      0.844570000000     0.488730000000     0.084460000000    -0.268697   
O50      O      0.861440000000     0.558160000000     0.090610000000    -0.172841   
O51      O      0.913190000000     0.509740000000     0.087530000000    -0.180164   
O52      O      0.153190000000     0.434260000000     0.057020000000    -0.276309   
O53      O      0.133670000000     0.378960000000     0.015650000000    -0.182672   
O54      O      0.084400000000     0.414760000000     0.052440000000    -0.170652   
O55      O      0.484210000000     0.870590000000     0.881920000000    -0.274984   
O56      O      0.553610000000     0.887490000000     0.875610000000    -0.183043   
O57      O      0.505840000000     0.938840000000     0.887720000000    -0.180029   
O58      O      0.467430000000     0.153250000000     0.083110000000    -0.274356   
O59      O      0.533010000000     0.125530000000     0.091610000000    -0.184483   
O60      O      0.477760000000     0.082300000000     0.079470000000    -0.180709   
O61      O      0.389690000000     0.016250000000     0.620200000000    -0.274928   
O62      O      0.385030000000     0.944920000000     0.612660000000    -0.182857   
O63      O      0.394210000000     0.986050000000     0.555360000000    -0.1798     
O64      O      0.576130000000     0.959970000000     0.336740000000    -0.270995   
O65      O      0.544420000000     0.897850000000     0.353120000000    -0.172638   
O66      O      0.563880000000     0.941970000000     0.405110000000    -0.175094   
O67      O      0.046600000000     0.430700000000     0.666950000000    -0.269088   
O68      O      0.099780000000     0.448330000000     0.622400000000    -0.165816   
O69      O      0.037080000000     0.426370000000     0.595470000000    -0.13076    
O70      O      0.026540000000     0.384850000000     0.364570000000    -0.26978    
O71      O      0.958840000000     0.371210000000     0.383260000000    -0.172812   
O72      O      0.006220000000     0.387320000000     0.433410000000    -0.184069   
O73      O      0.141050000000     0.900290000000     0.501650000000    -0.274201   
O74      O      0.121460000000     0.893420000000     0.433090000000    -0.182224   
O75      O      0.071740000000     0.895610000000     0.483860000000    -0.178841   
O76      O      0.845620000000     0.073070000000     0.522180000000    -0.268992   
O77      O      0.852880000000     0.082810000000     0.451730000000    -0.170736   
O78      O      0.910730000000     0.075280000000     0.491880000000    -0.181125   
O79      O      0.899040000000     0.840580000000     0.505510000000    -0.269318   
O80      O      0.890930000000     0.858200000000     0.436700000000    -0.171572   
O81      O      0.899410000000     0.909570000000     0.484850000000    -0.181143   
O82      O      0.027270000000     0.326310000000     0.606480000000    -0.267751   
O83      O      0.983470000000     0.380710000000     0.620830000000    -0.17447    
O84      O      0.050060000000     0.394210000000     0.597730000000    -0.125121   
S1       S      0.873520000000     0.520200000000     0.072680000000     0.286743   
S2       S      0.121740000000     0.418410000000     0.030200000000     0.286537   
S3       S      0.516490000000     0.897340000000     0.896270000000     0.286264   
S4       S      0.495270000000     0.121250000000     0.070210000000     0.283969   
S5       S      0.404270000000     0.981090000000     0.597470000000     0.285491   
S6       S      0.548070000000     0.939890000000     0.364520000000     0.287389   
S7       S      0.056540000000     0.449390000000     0.628070000000     0.287967   
S8       S      0.993840000000     0.395620000000     0.392430000000     0.286268   
S9       S      0.110590000000     0.911110000000     0.471430000000     0.285871   
S10      S      0.869430000000     0.062260000000     0.486450000000     0.286411   
S11      S      0.911240000000     0.868970000000     0.473720000000     0.285948   
S12      S      0.015000000000     0.367090000000     0.593920000000     0.277596   


