data_structure

_audit_creation_method RASPA-1.0
_audit_creation_date 2023-6-5
_audit_author_name 'Poobodin Mano'

_cell_length_a    61.9262
_cell_length_b    62.2001
_cell_length_c    37.1473
_cell_angle_alpha 89.9402
_cell_angle_beta  90.0593
_cell_angle_gamma 119.952
_cell_volume      123975

_symmetry_cell_setting          triclinic
_symmetry_space_group_name_Hall 'P 1'
_symmetry_space_group_name_H-M  'P 1'
_symmetry_Int_Tables_number     1

_symmetry_equiv_pos_as_xyz 'x,y,z'

loop_
_atom_site_label
_atom_site_type_symbol
_atom_site_fract_x
_atom_site_fract_y
_atom_site_fract_z
_atom_site_charge
C1       C      0.851030000000     0.657620000000     0.578110000000     0.432017   
C2       C      0.826900000000     0.654500000000     0.710380000000     0.4268     
C3       C      0.793230000000     0.633450000000     0.626710000000     0.431073   
C4       C      0.885160000000     0.678960000000     0.662970000000     0.431991   
C5       C      0.170690000000     0.831370000000     0.863430000000     0.430765   
C6       C      0.182180000000     0.851090000000     0.728740000000     0.429756   
C7       C      0.223000000000     0.871140000000     0.805710000000     0.430601   
C8       C      0.130070000000     0.811200000000     0.786540000000     0.428087   
C9       C      0.524380000000     0.009840000000     0.910290000000     0.427785   
C10      C      0.487290000000     0.003260000000     0.035470000000     0.429274   
C11      C      0.463160000000     0.991210000000     0.943720000000     0.427454   
C12      C      0.548420000000     0.021770000000     0.001650000000     0.429235   
C13      C      0.151660000000     0.314900000000     0.392720000000     0.433481   
C14      C      0.177090000000     0.350330000000     0.266020000000     0.432512   
C15      C      0.208520000000     0.362030000000     0.352180000000     0.431674   
C16      C      0.120100000000     0.303210000000     0.307360000000     0.428047   
C17      C      0.860950000000     0.170600000000     0.047070000000     0.430549   
C18      C      0.828280000000     0.140490000000     0.174150000000     0.427303   
C19      C      0.800240000000     0.130500000000     0.086210000000     0.432101   
C20      C      0.888950000000     0.180290000000     0.135810000000     0.43142    
C21      C      0.485820000000     0.492210000000     0.570710000000     0.431089   
C22      C      0.507710000000     0.511260000000     0.437620000000     0.428608   
C23      C      0.542860000000     0.521450000000     0.520050000000     0.427822   
C24      C      0.450420000000     0.482110000000     0.489160000000     0.427721   
C25      C      0.168190000000     0.315420000000     0.763150000000     0.429138   
C26      C      0.169550000000     0.322180000000     0.900100000000     0.428232   
C27      C      0.188080000000     0.290600000000     0.834810000000     0.428635   
C28      C      0.149840000000     0.346760000000     0.829460000000     0.426289   
C29      C      0.312340000000     0.161120000000     0.582010000000     0.42838    
C30      C      0.337040000000     0.144710000000     0.705970000000     0.428355   
C31      C      0.349390000000     0.135100000000     0.613470000000     0.427237   
C32      C      0.299730000000     0.170230000000     0.674920000000     0.430424   
C33      C      0.018320000000     0.515640000000     0.921810000000     0.427621   
C34      C      0.019950000000     0.488580000000     0.050990000000     0.43142    
C35      C      0.040940000000     0.479000000000     0.965260000000     0.429465   
C36      C      0.997270000000     0.525870000000     0.007580000000     0.43114    
C37      C      0.671530000000     0.836140000000     0.249660000000     0.426619   
C38      C      0.667850000000     0.814410000000     0.383140000000     0.42979    
C39      C      0.688070000000     0.797850000000     0.301140000000     0.425843   
C40      C      0.651360000000     0.853340000000     0.330840000000     0.427068   
C41      C      0.851880000000     0.656160000000     0.207100000000     0.428548   
C42      C      0.821650000000     0.660400000000     0.080640000000     0.429916   
C43      C      0.811800000000     0.677560000000     0.169450000000     0.429808   
C44      C      0.861510000000     0.639290000000     0.117690000000     0.427573   
C45      C      0.520480000000     0.002260000000     0.538030000000     0.429727   
C46      C      0.498770000000     0.004920000000     0.405820000000     0.426107   
C47      C      0.485940000000     0.025880000000     0.489310000000     0.429922   
C48      C      0.533210000000     0.981210000000     0.453490000000     0.429821   
C49      C      0.324490000000     0.171090000000     0.210650000000     0.429475   
C50      C      0.334960000000     0.162270000000     0.075990000000     0.430593   
C51      C      0.308590000000     0.119560000000     0.150420000000     0.430329   
C52      C      0.350890000000     0.213750000000     0.136070000000     0.428316   
C53      C      0.499030000000     0.525760000000     0.068930000000     0.432185   
C54      C      0.480670000000     0.487900000000     0.943000000000     0.429261   
C55      C      0.469480000000     0.463530000000     0.034000000000     0.427485   
C56      C      0.510620000000     0.550440000000     0.978730000000     0.430113   
C57      C      0.181390000000     0.851410000000     0.356070000000     0.428231   
C58      C      0.157640000000     0.809420000000     0.232840000000     0.428871   
C59      C      0.147220000000     0.788230000000     0.325730000000     0.430623   
C60      C      0.191750000000     0.872660000000     0.263120000000     0.428039   
C61      C      0.014520000000     0.516000000000     0.550240000000     0.434384   
C62      C      0.011370000000     0.488060000000     0.420230000000     0.429684   
C63      C      0.994750000000     0.457090000000     0.505900000000     0.431107   
C64      C      0.031100000000     0.547050000000     0.464460000000     0.427838   
C65      C      0.858280000000     0.174350000000     0.676490000000     0.428018   
C66      C      0.836230000000     0.146450000000     0.545670000000     0.430359   
C67      C      0.819450000000     0.115660000000     0.631720000000     0.42715    
C68      C      0.874840000000     0.205160000000     0.589720000000     0.427736   
C69      C      0.658910000000     0.817480000000     0.755280000000     0.427994   
C70      C      0.668870000000     0.856220000000     0.879870000000     0.433085   
C71      C      0.686950000000     0.879950000000     0.788250000000     0.430874   
C72      C      0.641010000000     0.794020000000     0.846460000000     0.426895   
C73      C      0.697320000000     0.937700000000     0.740800000000    -0.0321305  
C74      C      0.801040000000     0.053490000000     0.669390000000    -0.0306802  
C75      C      0.777200000000     0.081300000000     0.645490000000    -0.00527649 
C76      C      0.814080000000     0.074030000000     0.641360000000    -0.00506364 
C77      C      0.746880000000     0.997200000000     0.668860000000    -0.0546856  
C78      C      0.749280000000     0.997860000000     0.744070000000    -0.0539314  
C79      C      0.760620000000     0.019850000000     0.686830000000     0.0612257  
C80      C      0.765870000000     0.060360000000     0.673280000000    -0.0305506  
C81      C      0.735690000000     0.975160000000     0.726080000000     0.0602482  
C82      C      0.736080000000     0.937540000000     0.739870000000    -0.0589478  
C83      C      0.734540000000     0.975000000000     0.688180000000    -0.0560694  
C84      C      0.726790000000     0.915790000000     0.766470000000     0.0968596  
C85      C      0.685680000000     0.916770000000     0.768410000000    -0.00444707 
C86      C      0.761700000000     0.020070000000     0.724720000000    -0.056703   
C87      C      0.991890000000     0.396800000000     0.526140000000    -0.0324857  
C88      C      0.893830000000     0.270560000000     0.568920000000    -0.030396   
C89      C      0.916000000000     0.238770000000     0.569470000000    -0.00503215 
C90      C      0.877160000000     0.242670000000     0.563680000000    -0.00524475 
C91      C      0.941010000000     0.316350000000     0.518530000000    -0.0545092  
C92      C      0.951380000000     0.346180000000     0.579620000000    -0.0538923  
C93      C      0.933770000000     0.305230000000     0.552470000000     0.0613029  
C94      C      0.930970000000     0.267020000000     0.574300000000    -0.0307703  
C95      C      0.957670000000     0.357260000000     0.545510000000     0.0601175  
C96      C      0.949640000000     0.388790000000     0.522560000000    -0.0592695  
C97      C      0.952950000000     0.342120000000     0.514950000000    -0.0558481  
C98      C      0.957740000000     0.416480000000     0.524020000000     0.0965972  
C99      C      0.002480000000     0.424770000000     0.529580000000    -0.00459616 
C100     C      0.939630000000     0.320380000000     0.583210000000    -0.0567365  
C101     C      0.096230000000     0.730510000000     0.369670000000    -0.0322236  
C102     C      0.077090000000     0.610340000000     0.431880000000    -0.030549   
C103     C      0.024180000000     0.581770000000     0.449480000000    -0.00496148 
C104     C      0.068030000000     0.588540000000     0.457980000000    -0.00503849 
C105     C      0.079850000000     0.666690000000     0.436630000000    -0.0545111  
C106     C      0.086500000000     0.670090000000     0.361970000000    -0.0538506  
C107     C      0.071700000000     0.645040000000     0.416350000000     0.0613587  
C108     C      0.035510000000     0.604060000000     0.423920000000    -0.0307009  
C109     C      0.094970000000     0.691790000000     0.382320000000     0.0604129  
C110     C      0.134340000000     0.729480000000     0.375570000000    -0.0591106  
C111     C      0.091410000000     0.689900000000     0.419910000000    -0.0560772  
C112     C      0.149150000000     0.752390000000     0.351590000000     0.0969378  
C113     C      0.107660000000     0.752640000000     0.344070000000    -0.00367818 
C114     C      0.074960000000     0.646860000000     0.378730000000    -0.0567313  
C115     C      0.561920000000     0.612360000000     0.948620000000    -0.0322248  
C116     C      0.588640000000     0.732740000000     0.875440000000    -0.0306841  
C117     C      0.643010000000     0.760050000000     0.877780000000    -0.00500906 
C118     C      0.602450000000     0.761080000000     0.874110000000    -0.00510136 
C119     C      0.579670000000     0.680040000000     0.876980000000    -0.0567444  
C120     C      0.571290000000     0.665470000000     0.949250000000    -0.0560969  
C121     C      0.589240000000     0.698150000000     0.904290000000     0.061114   
C122     C      0.627200000000     0.731710000000     0.878880000000    -0.0308475  
C123     C      0.561310000000     0.647340000000     0.921960000000     0.0602313  
C124     C      0.524390000000     0.614920000000     0.951010000000    -0.0590038  
C125     C      0.565740000000     0.654860000000     0.885870000000    -0.0539991  
C126     C      0.507600000000     0.586630000000     0.954850000000     0.0960457  
C127     C      0.547590000000     0.584110000000     0.950080000000    -0.00465936 
C128     C      0.585030000000     0.690620000000     0.940360000000    -0.0545995  
C129     C      0.300060000000     0.055940000000     0.167200000000    -0.0324511  
C130     C      0.202860000000     0.933270000000     0.228440000000    -0.0306435  
C131     C      0.229870000000     0.906170000000     0.234930000000    -0.00497677 
C132     C      0.188360000000     0.904940000000     0.229210000000    -0.00504967 
C133     C      0.246920000000     0.976420000000     0.169440000000    -0.0544873  
C134     C      0.257260000000     0.011200000000     0.224000000000    -0.0538071  
C135     C      0.240330000000     0.968330000000     0.205010000000     0.0611709  
C136     C      0.242530000000     0.934530000000     0.233960000000    -0.0307861  
C137     C      0.263380000000     0.019260000000     0.188310000000     0.0604148  
C138     C      0.259640000000     0.050740000000     0.155190000000    -0.0590275  
C139     C      0.258480000000     0.001660000000     0.161060000000    -0.0561651  
C140     C      0.269550000000     0.078830000000     0.152320000000     0.0968393  
C141     C      0.312860000000     0.084160000000     0.168310000000    -0.00288505 
C142     C      0.245950000000     0.985970000000     0.232430000000    -0.0566964  
C143     C      0.401480000000     0.280760000000     0.128060000000    -0.0324769  
C144     C      0.420220000000     0.400140000000     0.060930000000    -0.0306864  
C145     C      0.474410000000     0.430590000000     0.063210000000    -0.00522537 
C146     C      0.432280000000     0.428420000000     0.061410000000    -0.00516447 
C147     C      0.418840000000     0.357430000000     0.121990000000    -0.0546023  
C148     C      0.404270000000     0.323630000000     0.065040000000    -0.0538279  
C149     C      0.423720000000     0.366230000000     0.086530000000     0.0612116  
C150     C      0.460350000000     0.402210000000     0.062630000000    -0.0306025  
C151     C      0.399350000000     0.314820000000     0.100520000000     0.0601472  
C152     C      0.362180000000     0.279470000000     0.123800000000    -0.0589855  
C153     C      0.406760000000     0.331970000000     0.129060000000    -0.0560601  
C154     C      0.347030000000     0.250960000000     0.124030000000     0.0963439  
C155     C      0.389720000000     0.252610000000     0.126700000000    -0.00352606 
C156     C      0.416350000000     0.349100000000     0.057970000000    -0.056739   
C157     C      0.686840000000     0.815590000000     0.480160000000    -0.032422   
C158     C      0.636120000000     0.803060000000     0.662800000000    -0.0308518  
C159     C      0.677140000000     0.805770000000     0.704950000000    -0.00515794 
C160     C      0.632320000000     0.795700000000     0.702590000000    -0.00535691 
C161     C      0.658570000000     0.783090000000     0.587990000000    -0.0546099  
C162     C      0.660380000000     0.823860000000     0.553320000000    -0.0537716  
C163     C      0.657400000000     0.801380000000     0.608500000000     0.0610345  
C164     C      0.679560000000     0.813230000000     0.665220000000    -0.0308325  
C165     C      0.660680000000     0.805150000000     0.532730000000     0.0600443  
C166     C      0.643570000000     0.784840000000     0.475340000000    -0.059005   
C167     C      0.660600000000     0.785080000000     0.550520000000    -0.0559064  
C168     C      0.642460000000     0.789510000000     0.434840000000     0.0967118  
C169     C      0.688660000000     0.824770000000     0.441590000000    -0.00268761 
C170     C      0.659170000000     0.822270000000     0.590880000000    -0.0566092  
C171     C      0.695740000000     0.870190000000     0.968630000000    -0.0326074  
C172     C      0.651980000000     0.837410000000     0.154550000000    -0.0306676  
C173     C      0.697620000000     0.857810000000     0.197250000000    -0.00539592 
C174     C      0.651490000000     0.824930000000     0.190240000000    -0.00453106 
C175     C      0.676120000000     0.837840000000     0.074630000000    -0.0541069  
C176     C      0.676920000000     0.881420000000     0.053800000000    -0.0541672  
C177     C      0.676960000000     0.854290000000     0.101040000000     0.0610345  
C178     C      0.695590000000     0.867980000000     0.160650000000    -0.0304347  
C179     C      0.676590000000     0.865200000000     0.027370000000     0.0606508  
C180     C      0.651330000000     0.856000000000     0.973880000000    -0.0599609  
C181     C      0.675600000000     0.843000000000     0.038150000000    -0.0562593  
C182     C      0.650620000000     0.864920000000     0.935460000000     0.0965848  
C183     C      0.696310000000     0.879660000000     0.930500000000    -0.00428162 
C184     C      0.676780000000     0.875930000000     0.090360000000    -0.0563635  
C185     C      0.757000000000     0.682760000000     0.201290000000    -0.0323698  
C186     C      0.735340000000     0.778690000000     0.279670000000    -0.0303792  
C187     C      0.681290000000     0.757500000000     0.279850000000    -0.00466478 
C188     C      0.724870000000     0.796290000000     0.280870000000    -0.00517504 
C189     C      0.730890000000     0.736420000000     0.214040000000    -0.0544839  
C190     C      0.752860000000     0.720840000000     0.265990000000    -0.0538492  
C191     C      0.729360000000     0.741340000000     0.250430000000     0.0612414  
C192     C      0.694480000000     0.742200000000     0.278920000000    -0.03076    
C193     C      0.755350000000     0.716910000000     0.229450000000     0.0599947  
C194     C      0.791990000000     0.724170000000     0.196740000000    -0.0590707  
C195     C      0.743580000000     0.724160000000     0.203530000000    -0.0558763  
C196     C      0.810670000000     0.715090000000     0.190680000000     0.0964384  
C197     C      0.773320000000     0.670860000000     0.197900000000    -0.00427508 
C198     C      0.739780000000     0.732750000000     0.276540000000    -0.0568233  
C199     C      0.585190000000     0.972590000000     0.419040000000    -0.0323178  
C200     C      0.605140000000     0.871420000000     0.359050000000    -0.0306853  
C201     C      0.658160000000     0.895390000000     0.342320000000    -0.0053289  
C202     C      0.614510000000     0.858670000000     0.333370000000    -0.0049907  
C203     C      0.601710000000     0.924470000000     0.353950000000    -0.0545614  
C204     C      0.596010000000     0.922360000000     0.428760000000    -0.0538865  
C205     C      0.610380000000     0.911440000000     0.374490000000     0.0611886  
C206     C      0.646700000000     0.906520000000     0.367420000000    -0.0305295  
C207     C      0.587130000000     0.935220000000     0.408180000000     0.0601197  
C208     C      0.547460000000     0.932890000000     0.416390000000    -0.059075   
C209     C      0.590120000000     0.936210000000     0.370490000000    -0.055989   
C210     C      0.532900000000     0.941640000000     0.439830000000     0.0965882  
C211     C      0.573410000000     0.983580000000     0.443580000000    -0.00477422 
C212     C      0.607490000000     0.910490000000     0.412170000000    -0.056779   
C213     C      0.041140000000     0.535240000000     0.640640000000    -0.0321917  
C214     C      0.997440000000     0.515410000000     0.826480000000    -0.0305974  
C215     C      0.042370000000     0.541200000000     0.870690000000    -0.0048041  
C216     C      0.996940000000     0.504970000000     0.863780000000    -0.00394886 
C217     C      0.024620000000     0.512170000000     0.751380000000    -0.0543214  
C218     C      0.020400000000     0.550850000000     0.720250000000    -0.0543018  
C219     C      0.023250000000     0.529630000000     0.773510000000     0.0617155  
C220     C      0.039910000000     0.548430000000     0.832130000000    -0.03036    
C221     C      0.021950000000     0.533450000000     0.698100000000     0.0607987  
C222     C      0.996160000000     0.516110000000     0.645680000000    -0.0596816  
C223     C      0.023700000000     0.513810000000     0.714050000000    -0.0561916  
C224     C      0.993460000000     0.520350000000     0.605550000000     0.0970737  
C225     C      0.040400000000     0.540740000000     0.600840000000    -0.00451955 
C226     C      0.020760000000     0.548870000000     0.757720000000    -0.0567283  
C227     C      0.040900000000     0.484270000000     0.144540000000    -0.0322998  
C228     C      0.989660000000     0.473690000000     0.326510000000    -0.030745   
C229     C      0.032380000000     0.480910000000     0.369000000000    -0.00455951 
C230     C      0.986320000000     0.466690000000     0.366380000000    -0.00513881 
C231     C      0.013470000000     0.455410000000     0.252590000000    -0.0545124  
C232     C      0.014590000000     0.495730000000     0.217420000000    -0.0540791  
C233     C      0.012010000000     0.473640000000     0.272770000000     0.061328   
C234     C      0.034040000000     0.487770000000     0.329170000000    -0.0307849  
C235     C      0.015410000000     0.477170000000     0.197210000000     0.0609311  
C236     C      0.995490000000     0.458260000000     0.140400000000    -0.0595145  
C237     C      0.015480000000     0.457250000000     0.215160000000    -0.0564182  
C238     C      0.999180000000     0.457610000000     0.099160000000     0.0947801  
C239     C      0.043790000000     0.494390000000     0.106380000000    -0.000305283
C240     C      0.013250000000     0.494230000000     0.254950000000    -0.0564974  
C241     C      0.945190000000     0.537900000000     0.029030000000    -0.0320263  
C242     C      0.915600000000     0.632650000000     0.089570000000    -0.0305944  
C243     C      0.861410000000     0.602430000000     0.093170000000    -0.00530343 
C244     C      0.899880000000     0.645370000000     0.088330000000    -0.00512667 
C245     C      0.927170000000     0.589970000000     0.096330000000    -0.0566362  
C246     C      0.935710000000     0.581030000000     0.025430000000    -0.0560347  
C247     C      0.916920000000     0.596720000000     0.067560000000     0.0612569  
C248     C      0.878980000000     0.591820000000     0.094090000000    -0.0304354  
C249     C      0.945550000000     0.573800000000     0.054190000000     0.0603186  
C250     C      0.983250000000     0.577330000000     0.029420000000    -0.0588302  
C251     C      0.941290000000     0.578530000000     0.089570000000    -0.0538699  
C252     C      0.999720000000     0.565260000000     0.028610000000     0.0963876  
C253     C      0.958960000000     0.523330000000     0.029810000000    -0.00453488 
C254     C      0.921470000000     0.592310000000     0.032200000000    -0.0544949  
C255     C      0.357370000000     0.147850000000     0.990200000000    -0.0323431  
C256     C      0.355090000000     0.161640000000     0.798460000000    -0.0307915  
C257     C      0.331550000000     0.116090000000     0.756430000000    -0.00589275 
C258     C      0.363710000000     0.161460000000     0.759980000000    -0.00503168 
C259     C      0.364770000000     0.148910000000     0.875420000000    -0.0540184  
C260     C      0.318270000000     0.131370000000     0.907600000000    -0.0536601  
C261     C      0.343330000000     0.138010000000     0.853740000000     0.0603752  
C262     C      0.324690000000     0.117530000000     0.795660000000    -0.030801   
C263     C      0.339740000000     0.142690000000     0.929180000000     0.0598218  
C264     C      0.332360000000     0.166090000000     0.974570000000    -0.0593892  
C265     C      0.363170000000     0.151860000000     0.912420000000    -0.0554057  
C266     C      0.322580000000     0.164180000000     0.013080000000     0.0969837  
C267     C      0.350000000000     0.145240000000     0.029870000000    -0.00446591 
C268     C      0.319960000000     0.129560000000     0.870310000000    -0.0557128  
C269     C      0.293220000000     0.167560000000     0.299290000000    -0.0322016  
C270     C      0.325490000000     0.183080000000     0.489900000000    -0.0307599  
C271     C      0.282010000000     0.148520000000     0.531570000000    -0.00549364 
C272     C      0.322800000000     0.188800000000     0.529100000000    -0.0049132  
C273     C      0.299690000000     0.183430000000     0.412960000000    -0.0544867  
C274     C      0.310920000000     0.149360000000     0.381650000000    -0.0537107  
C275     C      0.302360000000     0.166600000000     0.434980000000     0.061065   
C276     C      0.285680000000     0.144420000000     0.491870000000    -0.0308637  
C277     C      0.307950000000     0.165990000000     0.359570000000     0.0603272  
C278     C      0.336980000000     0.184910000000     0.310660000000    -0.0587852  
C279     C      0.302840000000     0.183480000000     0.375700000000    -0.0560728  
C280     C      0.342660000000     0.180320000000     0.272060000000     0.096435   
C281     C      0.295330000000     0.161450000000     0.260140000000    -0.00397591 
C282     C      0.308560000000     0.149850000000     0.419020000000    -0.0564121  
C283     C      0.432610000000     0.035750000000     0.514050000000    -0.0323234  
C284     C      0.403490000000     0.129750000000     0.581250000000    -0.0306981  
C285     C      0.349290000000     0.099550000000     0.584030000000    -0.00494837 
C286     C      0.387850000000     0.142560000000     0.582680000000    -0.00526847 
C287     C      0.406790000000     0.089090000000     0.519130000000    -0.0545384  
C288     C      0.430570000000     0.077410000000     0.573400000000    -0.0537242  
C289     C      0.404520000000     0.094570000000     0.555000000000     0.061226   
C290     C      0.366760000000     0.088840000000     0.582970000000    -0.0306374  
C291     C      0.432960000000     0.072040000000     0.537490000000     0.060167   
C292     C      0.468710000000     0.075980000000     0.505500000000    -0.0589275  
C293     C      0.420790000000     0.077870000000     0.510340000000    -0.0559537  
C294     C      0.486430000000     0.065460000000     0.502040000000     0.0966563  
C295     C      0.447690000000     0.022470000000     0.513440000000    -0.00387247 
C296     C      0.416400000000     0.088480000000     0.582230000000    -0.0567812  
C297     C      0.050380000000     0.427520000000     0.929850000000    -0.0324416  
C298     C      0.143340000000     0.403770000000     0.842590000000    -0.0303025  
C299     C      0.112190000000     0.349720000000     0.836320000000    -0.00396387 
C300     C      0.156570000000     0.388640000000     0.838590000000    -0.00464843 
C301     C      0.102400000000     0.417110000000     0.850900000000    -0.057007   
C302     C      0.092660000000     0.415920000000     0.924650000000    -0.0558869  
C303     C      0.108800000000     0.403350000000     0.874310000000     0.0615781  
C304     C      0.102480000000     0.367880000000     0.839260000000    -0.03038    
C305     C      0.086490000000     0.429950000000     0.901390000000     0.0601019  
C306     C      0.090880000000     0.462710000000     0.940880000000    -0.0589451  
C307     C      0.091430000000     0.430380000000     0.864490000000    -0.0537028  
C308     C      0.080420000000     0.479870000000     0.949980000000     0.0966041  
C309     C      0.036980000000     0.442170000000     0.935820000000    -0.00350646 
C310     C      0.103780000000     0.402840000000     0.911120000000    -0.0544828  
C311     C      0.287350000000     0.215410000000     0.724320000000    -0.0322254  
C312     C      0.192150000000     0.236870000000     0.808230000000    -0.0308442  
C313     C      0.225680000000     0.286140000000     0.836820000000    -0.00505567 
C314     C      0.182980000000     0.248350000000     0.836630000000    -0.0053761  
C315     C      0.240940000000     0.223260000000     0.804720000000    -0.0545968  
C316     C      0.236570000000     0.223490000000     0.729800000000    -0.053791   
C317     C      0.228420000000     0.234470000000     0.789130000000     0.0611708  
C318     C      0.233540000000     0.273860000000     0.808080000000    -0.0304939  
C319     C      0.249140000000     0.212310000000     0.745390000000     0.0602104  
C320     C      0.250450000000     0.175260000000     0.729430000000    -0.0589773  
C321     C      0.251320000000     0.212360000000     0.783170000000    -0.0559717  
C322     C      0.259530000000     0.163640000000     0.700920000000     0.0963373  
C323     C      0.298120000000     0.206960000000     0.694210000000    -0.00434304 
C324     C      0.226390000000     0.234600000000     0.751360000000    -0.0565795  
C325     C      0.478020000000     0.462060000000     0.661500000000    -0.0323489  
C326     C      0.461070000000     0.483230000000     0.849910000000    -0.0308248  
C327     C      0.490570000000     0.467980000000     0.892750000000    -0.00526133 
C328     C      0.453780000000     0.474810000000     0.888880000000    -0.00469837 
C329     C      0.458060000000     0.455990000000     0.773070000000    -0.0544283  
C330     C      0.497770000000     0.498540000000     0.742910000000    -0.0538487  
C331     C      0.476150000000     0.473990000000     0.795680000000     0.0611576  
C332     C      0.496300000000     0.476050000000     0.853340000000    -0.030806   
C333     C      0.480020000000     0.480250000000     0.720260000000     0.0605692  
C334     C      0.467100000000     0.493870000000     0.667830000000    -0.0589149  
C335     C      0.459650000000     0.459200000000     0.735750000000    -0.0560744  
C336     C      0.474970000000     0.503530000000     0.629200000000     0.0968161  
C337     C      0.487000000000     0.469220000000     0.622870000000    -0.00329962 
C338     C      0.495710000000     0.495720000000     0.780290000000    -0.0563014  
C339     C      0.483470000000     0.521120000000     0.161850000000    -0.0346464  
C340     C      0.503190000000     0.499700000000     0.340220000000    -0.0311787  
C341     C      0.526980000000     0.542050000000     0.388630000000    -0.00558518 
C342     C      0.511250000000     0.496370000000     0.377710000000    -0.0040552  
C343     C      0.505740000000     0.539380000000     0.274110000000    -0.0544965  
C344     C      0.523370000000     0.516170000000     0.227810000000    -0.0552204  
C345     C      0.517740000000     0.527070000000     0.288690000000     0.0595976  
C346     C      0.519380000000     0.543650000000     0.349890000000    -0.030811   
C347     C      0.511370000000     0.528250000000     0.213450000000     0.0619597  
C348     C      0.528940000000     0.551800000000     0.158710000000    -0.0592581  
C349     C      0.503400000000     0.540680000000     0.236850000000    -0.0568603  
C350     C      0.529270000000     0.548020000000     0.117830000000     0.0958057  
C351     C      0.483370000000     0.533400000000     0.125870000000    -0.00177676 
C352     C      0.526890000000     0.515950000000     0.264900000000    -0.0531365  
C353     C      0.887260000000     0.176250000000     0.953870000000    -0.032135   
C354     C      0.848450000000     0.187120000000     0.770180000000    -0.0307057  
C355     C      0.885270000000     0.181130000000     0.729290000000    -0.00504407 
C356     C      0.852770000000     0.194500000000     0.730400000000    -0.00539924 
C357     C      0.889280000000     0.205550000000     0.845920000000    -0.0543162  
C358     C      0.850070000000     0.164370000000     0.879690000000    -0.0540002  
C359     C      0.870120000000     0.187220000000     0.824980000000     0.060992   
C360     C      0.879320000000     0.173850000000     0.768900000000    -0.0306276  
C361     C      0.868960000000     0.182980000000     0.900640000000     0.0606181  
C362     C      0.866380000000     0.200850000000     0.957600000000    -0.0595294  
C363     C      0.888930000000     0.203390000000     0.883380000000    -0.0564214  
C364     C      0.870550000000     0.201530000000     0.998960000000     0.0946634  
C365     C      0.879890000000     0.165820000000     0.991890000000    -0.000736723
C366     C      0.850740000000     0.166240000000     0.842140000000    -0.056402   
C367     C      0.806690000000     0.136500000000     0.453650000000    -0.0323567  
C368     C      0.829620000000     0.118580000000     0.264570000000    -0.0308741  
C369     C      0.805550000000     0.142420000000     0.227750000000    -0.00557036 
C370     C      0.821270000000     0.112080000000     0.225280000000    -0.00544781 
C371     C      0.800270000000     0.110770000000     0.344850000000    -0.0544812  
C372     C      0.842710000000     0.151530000000     0.373550000000    -0.0538922  
C373     C      0.817950000000     0.128600000000     0.321610000000     0.0609761  
C374     C      0.814270000000     0.147860000000     0.266850000000    -0.0304193  
C375     C      0.824620000000     0.134140000000     0.396820000000     0.0603949  
C376     C      0.835190000000     0.120980000000     0.451970000000    -0.0586193  
C377     C      0.803640000000     0.113280000000     0.382130000000    -0.0562006  
C378     C      0.844540000000     0.129360000000     0.490610000000     0.0965607  
C379     C      0.813870000000     0.146570000000     0.491840000000    -0.00304201 
C380     C      0.839620000000     0.148720000000     0.336250000000    -0.0565536  
C381     C      0.166970000000     0.298920000000     0.477060000000    -0.0348034  
C382     C      0.144190000000     0.302690000000     0.669530000000    -0.0311761  
C383     C      0.192000000000     0.324350000000     0.706710000000    -0.0051584  
C384     C      0.145100000000     0.294670000000     0.708120000000    -0.00399524 
C385     C      0.154440000000     0.287860000000     0.592700000000    -0.053709   
C386     C      0.170420000000     0.332810000000     0.556860000000    -0.0547588  
C387     C      0.165400000000     0.310020000000     0.612490000000     0.0604535  
C388     C      0.188880000000     0.330220000000     0.667710000000    -0.0307929  
C389     C      0.159850000000     0.310680000000     0.537170000000     0.0616244  
C390     C      0.131010000000     0.305310000000     0.489470000000    -0.0596549  
C391     C      0.151090000000     0.288050000000     0.555570000000    -0.0568327  
C392     C      0.130540000000     0.312870000000     0.450180000000     0.0962773  
C393     C      0.152820000000     0.288430000000     0.441470000000    -0.00164635 
C394     C      0.172770000000     0.332540000000     0.594250000000    -0.0555119  
C395     C      0.201650000000     0.360740000000     0.171520000000    -0.0317148  
C396     C      0.146720000000     0.313910000000     0.995760000000    -0.0306743  
C397     C      0.191940000000     0.344760000000     0.954220000000    -0.00384927 
C398     C      0.144680000000     0.314700000000     0.954780000000    -0.0052544  
C399     C      0.178580000000     0.365370000000     0.060550000000    -0.0539055  
C400     C      0.162400000000     0.326060000000     0.109150000000    -0.0542173  
C401     C      0.168240000000     0.341070000000     0.047400000000     0.0607117  
C402     C      0.191280000000     0.341150000000     0.994920000000    -0.0308315  
C403     C      0.172710000000     0.350340000000     0.122200000000     0.061201   
C404     C      0.168560000000     0.371100000000     0.176150000000    -0.0591384  
C405     C      0.181390000000     0.370100000000     0.097500000000    -0.0565359  
C406     C      0.175170000000     0.376130000000     0.216850000000     0.0948859  
C407     C      0.200730000000     0.354020000000     0.211170000000    -0.000933576
C408     C      0.160600000000     0.321410000000     0.072180000000    -0.0558996  
C409     C      0.949870000000     0.191540000000     0.171430000000    -0.0320304  
C410     C      0.057160000000     0.284010000000     0.273250000000    -0.0304322  
C411     C      0.088820000000     0.262130000000     0.283430000000    -0.00510152 
C412     C      0.076300000000     0.293310000000     0.303620000000    -0.00502565 
C413     C      0.004000000000     0.229170000000     0.256450000000    -0.0545286  
C414     C      0.007360000000     0.244940000000     0.185100000000    -0.0538842  
C415     C      0.027150000000     0.246890000000     0.242570000000     0.0613465  
C416     C      0.068840000000     0.253870000000     0.254060000000    -0.0308365  
C417     C      0.984140000000     0.227430000000     0.199120000000     0.0602676  
C418     C      0.944750000000     0.225840000000     0.190380000000    -0.0590883  
C419     C      0.982630000000     0.219480000000     0.235040000000    -0.0561988  
C420     C      0.923470000000     0.219280000000     0.163430000000     0.0963757  
C421     C      0.929900000000     0.183770000000     0.142490000000    -0.00480152 
C422     C      0.028750000000     0.254670000000     0.206570000000    -0.0568733  
C423     C      0.272450000000     0.381310000000     0.384930000000    -0.032374   
C424     C      0.390660000000     0.477160000000     0.460540000000    -0.0308439  
C425     C      0.410180000000     0.444250000000     0.477510000000    -0.00503373 
C426     C      0.412620000000     0.485900000000     0.486590000000    -0.00495223 
C427     C      0.329320000000     0.426370000000     0.462140000000    -0.0545887  
C428     C      0.327970000000     0.434680000000     0.388390000000    -0.0540461  
C429     C      0.351640000000     0.440850000000     0.443500000000     0.061312   
C430     C      0.388520000000     0.437490000000     0.451630000000    -0.0305782  
C431     C      0.305640000000     0.420020000000     0.406990000000     0.060302   
C432     C      0.263840000000     0.413810000000     0.401260000000    -0.0590961  
C433     C      0.306490000000     0.415890000000     0.444140000000    -0.0560523  
C434     C      0.240890000000     0.403600000000     0.376390000000     0.096316   
C435     C      0.251300000000     0.370240000000     0.357660000000    -0.00418969 
C436     C      0.350840000000     0.444930000000     0.406340000000    -0.0569226  
C437     C      0.550830000000     0.024380000000     0.629140000000    -0.0323161  
C438     C      0.525030000000     0.988410000000     0.819390000000    -0.0307646  
C439     C      0.548000000000     0.035530000000     0.857810000000    -0.00540223 
C440     C      0.532640000000     0.989590000000     0.858900000000    -0.0052558  
C441     C      0.555360000000     0.008880000000     0.740960000000    -0.054457   
C442     C      0.514390000000     0.009030000000     0.709590000000    -0.0536283  
C443     C      0.537980000000     0.010660000000     0.763010000000     0.0610295  
C444     C      0.540240000000     0.032900000000     0.818200000000    -0.0307319  
C445     C      0.532100000000     0.007880000000     0.687460000000     0.060308   
C446     C      0.519520000000     0.981520000000     0.634980000000    -0.0586773  
C447     C      0.552360000000     0.007180000000     0.703560000000    -0.0560831  
C448     C      0.510320000000     0.979500000000     0.595960000000     0.0964613  
C449     C      0.544100000000     0.026140000000     0.590130000000    -0.00334702 
C450     C      0.517060000000     0.010100000000     0.747030000000    -0.0564883  
C451     C      0.459830000000     0.980100000000     0.127560000000    -0.0319667  
C452     C      0.507290000000     0.025410000000     0.310460000000    -0.0307091  
C453     C      0.470520000000     0.984650000000     0.354370000000    -0.00489874 
C454     C      0.505260000000     0.029570000000     0.350600000000    -0.0055083  
C455     C      0.463010000000     0.005450000000     0.239020000000    -0.0544143  
C456     C      0.499250000000     0.000880000000     0.200420000000    -0.0538421  
C457     C      0.482220000000     0.004560000000     0.257660000000     0.0608415  
C458     C      0.474380000000     0.982370000000     0.314130000000    -0.0310091  
C459     C      0.480490000000     0.002590000000     0.181760000000     0.0603944  
C460     C      0.483080000000     0.025490000000     0.127240000000    -0.0590621  
C461     C      0.461910000000     0.004180000000     0.201450000000    -0.0562118  
C462     C      0.478760000000     0.023910000000     0.085850000000     0.0942078  
C463     C      0.465960000000     0.977740000000     0.088430000000    -0.00106297 
C464     C      0.499990000000     0.001510000000     0.238070000000    -0.056484   
C465     C      0.736240000000     0.116850000000     0.064920000000    -0.0320419  
C466     C      0.606930000000     0.023070000000     0.025180000000    -0.0307849  
C467     C      0.586350000000     0.056170000000     0.028930000000    -0.00504851 
C468     C      0.578830000000     0.012230000000     0.030040000000    -0.00503637 
C469     C      0.658700000000     0.062690000000     0.076540000000    -0.0544821  
C470     C      0.687350000000     0.073720000000     0.013900000000    -0.0539127  
C471     C      0.646960000000     0.057540000000     0.042900000000     0.0613836  
C472     C      0.614070000000     0.065230000000     0.024010000000    -0.0306041  
C473     C      0.699150000000     0.079360000000     0.047540000000     0.0605474  
C474     C      0.735450000000     0.077610000000     0.067590000000    -0.0590533  
C475     C      0.684550000000     0.073480000000     0.078980000000    -0.0560341  
C476     C      0.764010000000     0.090240000000     0.064330000000     0.0964984  
C477     C      0.764390000000     0.131280000000     0.059920000000    -0.00474851 
C478     C      0.661460000000     0.062850000000     0.011470000000    -0.0566543  
C479     C      0.199030000000     0.850480000000     0.631470000000    -0.0326282  
C480     C      0.168280000000     0.865710000000     0.445600000000    -0.0307507  
C481     C      0.209250000000     0.864350000000     0.409230000000    -0.00520237 
C482     C      0.173910000000     0.873390000000     0.406020000000    -0.00545941 
C483     C      0.206380000000     0.885350000000     0.525290000000    -0.0546196  
C484     C      0.166660000000     0.843080000000     0.556050000000    -0.0538441  
C485     C      0.188330000000     0.867120000000     0.502900000000     0.0610372  
C486     C      0.202180000000     0.856460000000     0.448470000000    -0.0307932  
C487     C      0.184400000000     0.861600000000     0.578480000000     0.0600358  
C488     C      0.184620000000     0.879720000000     0.636650000000    -0.0590317  
C489     C      0.204730000000     0.882530000000     0.562680000000    -0.0559386  
C490     C      0.177630000000     0.873660000000     0.676620000000     0.0963348  
C491     C      0.190920000000     0.840400000000     0.669470000000    -0.00291436 
C492     C      0.168740000000     0.845550000000     0.518610000000    -0.0566135  
C493     C      0.169630000000     0.801620000000     0.952130000000    -0.0322332  
C494     C      0.138340000000     0.806830000000     0.141200000000    -0.0309508  
C495     C      0.165980000000     0.788520000000     0.182200000000    -0.0052804  
C496     C      0.130060000000     0.796460000000     0.179240000000    -0.00493981 
C497     C      0.140580000000     0.784040000000     0.060340000000    -0.0544505  
C498     C      0.178850000000     0.830600000000     0.038350000000    -0.0538379  
C499     C      0.155800000000     0.801330000000     0.086280000000     0.0611648  
C500     C      0.173170000000     0.798790000000     0.143940000000    -0.0306362  
C501     C      0.163910000000     0.813160000000     0.012360000000     0.060443   
C502     C      0.149590000000     0.825860000000     0.960610000000    -0.0588893  
C503     C      0.144330000000     0.789920000000     0.023710000000    -0.0561237  
C504     C      0.157620000000     0.838350000000     0.923540000000     0.0969555  
C505     C      0.179400000000     0.812500000000     0.914890000000    -0.00427106 
C506     C      0.174710000000     0.824930000000     0.075000000000    -0.0565574  
C507     C      0.284060000000     0.929390000000     0.826490000000    -0.0325314  
C508     C      0.400080000000     0.947540000000     0.907090000000    -0.0304858  
C509     C      0.432840000000     0.000880000000     0.915930000000    -0.00467134 
C510     C      0.428080000000     0.957810000000     0.910720000000    -0.00518265 
C511     C      0.364310000000     0.956620000000     0.842720000000    -0.0544273  
C512     C      0.325280000000     0.931200000000     0.891550000000    -0.053787   
C513     C      0.369690000000     0.955790000000     0.879130000000     0.0611906  
C514     C      0.404450000000     0.988330000000     0.912270000000    -0.0307963  
C515     C      0.319970000000     0.930890000000     0.854830000000     0.0603542  
C516     C      0.292680000000     0.896250000000     0.817330000000    -0.0592262  
C517     C      0.339680000000     0.944490000000     0.830580000000    -0.0560748  
C518     C      0.265320000000     0.876930000000     0.809950000000     0.0969728  
C519     C      0.255880000000     0.912690000000     0.822700000000    -0.00237451 
C520     C      0.349920000000     0.943750000000     0.903790000000    -0.0566591  
C521     C      0.817180000000     0.681910000000     0.987460000000    -0.032255   
C522     C      0.815320000000     0.633800000000     0.805480000000    -0.0306433  
C523     C      0.818850000000     0.674490000000     0.761970000000    -0.00483097 
C524     C      0.808740000000     0.629640000000     0.765450000000    -0.00548716 
C525     C      0.792100000000     0.654600000000     0.877570000000    -0.0543258  
C526     C      0.833020000000     0.658580000000     0.915360000000    -0.0541083  
C527     C      0.811710000000     0.654750000000     0.858580000000     0.060823   
C528     C      0.825440000000     0.676830000000     0.802040000000    -0.0309645  
C529     C      0.813060000000     0.657670000000     0.934380000000     0.0606339  
C530     C      0.793130000000     0.636550000000     0.990220000000    -0.0593157  
C531     C      0.792840000000     0.656370000000     0.915090000000    -0.0564678  
C532     C      0.791340000000     0.639410000000     0.031510000000     0.0944735  
C533     C      0.826450000000     0.684840000000     0.026230000000    -0.000632795
C534     C      0.832590000000     0.657500000000     0.877750000000    -0.0563393  
C535     C      0.865630000000     0.680790000000     0.483680000000    -0.0321691  
C536     C      0.877390000000     0.678810000000     0.296880000000    -0.0307987  
C537     C      0.849440000000     0.631140000000     0.260480000000    -0.00536943 
C538     C      0.881890000000     0.676610000000     0.256870000000    -0.00488529 
C539     C      0.850540000000     0.659590000000     0.371490000000    -0.056446   
C540     C      0.888730000000     0.659520000000     0.411630000000    -0.0541081  
C541     C      0.869410000000     0.657340000000     0.353760000000     0.0612091  
C542     C      0.846330000000     0.634880000000     0.300420000000    -0.0306234  
C543     C      0.869680000000     0.661150000000     0.429480000000     0.0603844  
C544     C      0.851450000000     0.636910000000     0.482900000000    -0.0590719  
C545     C      0.850370000000     0.660920000000     0.409040000000    -0.0557149  
C546     C      0.854880000000     0.635980000000     0.523750000000     0.0968976  
C547     C      0.870300000000     0.682570000000     0.524210000000    -0.00494784 
C548     C      0.888560000000     0.657560000000     0.374140000000    -0.0547028  
C549     C      0.729650000000     0.622920000000     0.603590000000    -0.0323515  
C550     C      0.606170000000     0.529220000000     0.536700000000    -0.0304822  
C551     C      0.580610000000     0.557800000000     0.542970000000    -0.00452165 
C552     C      0.577680000000     0.515310000000     0.537530000000    -0.00494266 
C553     C      0.659830000000     0.571220000000     0.536400000000    -0.0569823  
C554     C      0.676030000000     0.579820000000     0.607990000000    -0.0559233  
C555     C      0.642290000000     0.563770000000     0.564500000000     0.0616163  
C556     C      0.608880000000     0.569230000000     0.541250000000    -0.0305674  
C557     C      0.693610000000     0.586800000000     0.579970000000     0.0602677  
C558     C      0.726230000000     0.582820000000     0.609360000000    -0.0591982  
C559     C      0.685280000000     0.582510000000     0.544220000000    -0.0539029  
C560     C      0.754580000000     0.593760000000     0.611960000000     0.0967803  
C561     C      0.758030000000     0.636540000000     0.603380000000    -0.00382055 
C562     C      0.650620000000     0.568300000000     0.600190000000    -0.0546179  
C563     C      0.945790000000     0.688050000000     0.697940000000    -0.0321013  
C564     C      0.064830000000     0.790280000000     0.762250000000    -0.0308022  
C565     C      0.095630000000     0.768150000000     0.778060000000    -0.0051041  
C566     C      0.086850000000     0.803370000000     0.788080000000    -0.00496866 
C567     C      0.009450000000     0.736050000000     0.765040000000    -0.0545741  
C568     C      0.006640000000     0.739260000000     0.690240000000    -0.0538549  
C569     C      0.031320000000     0.749930000000     0.745150000000     0.0613736  
C570     C      0.073110000000     0.756390000000     0.752790000000    -0.030757   
C571     C      0.984730000000     0.725600000000     0.710180000000     0.0603455  
C572     C      0.947210000000     0.727430000000     0.701450000000    -0.059098   
C573     C      0.986310000000     0.724040000000     0.747860000000    -0.0562278  
C574     C      0.924130000000     0.718710000000     0.677440000000     0.0969405  
C575     C      0.923290000000     0.677150000000     0.672810000000    -0.00472092 
C576     C      0.029790000000     0.751430000000     0.707480000000    -0.0568048  
H1       H      0.772340000000     0.037330000000     0.739230000000     0.0403959  
H2       H      0.688580000000     0.949490000000     0.743870000000     0.0343478  
H3       H      0.756680000000     0.949190000000     0.742900000000     0.0451974  
H4       H      0.768170000000     0.073850000000     0.619010000000     0.0365437  
H5       H      0.685570000000     0.924850000000     0.795060000000     0.037022   
H6       H      0.806700000000     0.039300000000     0.664830000000     0.0340329  
H7       H      0.745200000000     0.051300000000     0.671590000000     0.0340897  
H8       H      0.834470000000     0.083660000000     0.646620000000     0.0398432  
H9       H      0.750500000000     0.998270000000     0.773170000000     0.0442353  
H10      H      0.665890000000     0.904280000000     0.760670000000     0.0399457  
H11      H      0.746010000000     0.996750000000     0.639740000000     0.0438803  
H12      H      0.693010000000     0.929580000000     0.713230000000     0.03574    
H13      H      0.772740000000     0.095860000000     0.653570000000     0.0405111  
H14      H      0.735950000000     0.923460000000     0.792870000000     0.0178559  
H15      H      0.807340000000     0.061410000000     0.696820000000     0.0372009  
H16      H      0.771700000000     0.068370000000     0.700750000000     0.0369705  
H17      H      0.724410000000     0.957740000000     0.673520000000     0.0395953  
H18      H      0.732240000000     0.930290000000     0.711750000000     0.0460272  
H19      H      0.810830000000     0.065390000000     0.614240000000     0.0355699  
H20      H      0.740800000000     0.891590000000     0.773750000000     0.0933347  
H21      H      0.721950000000     0.885300000000     0.735880000000     0.0920751  
H22      H      0.934310000000     0.312240000000     0.609770000000     0.0405285  
H23      H      0.004690000000     0.391860000000     0.540270000000     0.034456   
H24      H      0.930650000000     0.378080000000     0.534490000000     0.0456173  
H25      H      0.918080000000     0.234240000000     0.541190000000     0.0378829  
H26      H      0.006760000000     0.430030000000     0.558400000000     0.0365742  
H27      H      0.885240000000     0.280130000000     0.554480000000     0.0343756  
H28      H      0.950120000000     0.273890000000     0.563720000000     0.03429    
H29      H      0.859070000000     0.236820000000     0.577260000000     0.0411065  
H30      H      0.954900000000     0.357550000000     0.603360000000     0.0438979  
H31      H      0.020430000000     0.434180000000     0.514640000000     0.0404188  
H32      H      0.936640000000     0.304930000000     0.494660000000     0.0442411  
H33      H      0.991280000000     0.391900000000     0.497170000000     0.0366253  
H34      H      0.924090000000     0.230210000000     0.587280000000     0.0398023  
H35      H      0.953980000000     0.420550000000     0.551760000000     0.0151662  
H36      H      0.894670000000     0.275000000000     0.598120000000     0.0374962  
H37      H      0.932430000000     0.271590000000     0.603510000000     0.037161   
H38      H      0.957650000000     0.350140000000     0.488260000000     0.0398669  
H39      H      0.948330000000     0.382970000000     0.493880000000     0.0461235  
H40      H      0.873280000000     0.238850000000     0.534440000000     0.0366673  
H41      H      0.937620000000     0.433760000000     0.507910000000     0.0926613  
H42      H      0.948930000000     0.423680000000     0.472400000000     0.09412    
H43      H      0.068970000000     0.630410000000     0.362480000000     0.0404524  
H44      H      0.075910000000     0.719320000000     0.363850000000     0.0345677  
H45      H      0.143020000000     0.717580000000     0.373430000000     0.0450615  
H46      H      0.020790000000     0.587850000000     0.475990000000     0.0375133  
H47      H      0.100310000000     0.746020000000     0.316500000000     0.0379762  
H48      H      0.096730000000     0.624150000000     0.438860000000     0.0341568  
H49      H      0.023960000000     0.613160000000     0.425030000000     0.0343446  
H50      H      0.078770000000     0.578920000000     0.452780000000     0.0403954  
H51      H      0.089240000000     0.671260000000     0.333090000000     0.0444256  
H52      H      0.101090000000     0.765630000000     0.352190000000     0.0393332  
H53      H      0.077580000000     0.665560000000     0.465600000000     0.0441667  
H54      H      0.098470000000     0.737360000000     0.397900000000     0.0353398  
H55      H      0.005780000000     0.567610000000     0.438550000000     0.0400964  
H56      H      0.153230000000     0.745920000000     0.325870000000     0.0187291  
H57      H      0.076820000000     0.603720000000     0.403940000000     0.037042   
H58      H      0.034890000000     0.597440000000     0.395880000000     0.0367758  
H59      H      0.097930000000     0.706340000000     0.436350000000     0.0397031  
H60      H      0.135800000000     0.735330000000     0.404260000000     0.0460567  
H61      H      0.072320000000     0.595890000000     0.485930000000     0.0370495  
H62      H      0.187720000000     0.776820000000     0.351940000000     0.0932646  
H63      H      0.171640000000     0.781940000000     0.386070000000     0.0912206  
H64      H      0.592410000000     0.704340000000     0.961630000000     0.043768   
H65      H      0.579640000000     0.618350000000     0.933760000000     0.0341801  
H66      H      0.513520000000     0.622390000000     0.937260000000     0.0453531  
H67      H      0.649160000000     0.766990000000     0.905620000000     0.0365865  
H68      H      0.546400000000     0.576800000000     0.922390000000     0.0368586  
H69      H      0.570170000000     0.726230000000     0.888320000000     0.0341312  
H70      H      0.637590000000     0.724420000000     0.894330000000     0.0339822  
H71      H      0.592250000000     0.766910000000     0.855490000000     0.0399399  
H72      H      0.568440000000     0.660220000000     0.977360000000     0.0395379  
H73      H      0.558710000000     0.578160000000     0.966510000000     0.0397735  
H74      H      0.582840000000     0.685370000000     0.848900000000     0.0404747  
H75      H      0.566710000000     0.619890000000     0.976510000000     0.0359618  
H76      H      0.659990000000     0.765240000000     0.861530000000     0.039945   
H77      H      0.498450000000     0.579330000000     0.928330000000     0.0167859  
H78      H      0.585430000000     0.725350000000     0.847460000000     0.0371345  
H79      H      0.624390000000     0.724240000000     0.850970000000     0.0372465  
H80      H      0.558370000000     0.641150000000     0.864590000000     0.0439873  
H81      H      0.529450000000     0.623440000000     0.978310000000     0.0453655  
H82      H      0.601900000000     0.768220000000     0.901330000000     0.0348615  
H83      H      0.471190000000     0.566810000000     0.975030000000     0.0936878  
H84      H      0.494170000000     0.581700000000     0.007840000000     0.0926998  
H85      H      0.241320000000     0.980220000000     0.260190000000     0.0406355  
H86      H      0.310870000000     0.050020000000     0.184480000000     0.0343858  
H87      H      0.239900000000     0.041610000000     0.164370000000     0.0448779  
H88      H      0.231100000000     0.899440000000     0.207710000000     0.0368617  
H89      H      0.318090000000     0.090340000000     0.196670000000     0.0391637  
H90      H      0.192070000000     0.939770000000     0.212250000000     0.034347   
H91      H      0.261370000000     0.941960000000     0.221860000000     0.0339954  
H92      H      0.170670000000     0.898830000000     0.244110000000     0.0409644  
H93      H      0.261150000000     0.024540000000     0.245280000000     0.0445754  
H94      H      0.330550000000     0.091870000000     0.152800000000     0.0377704  
H95      H      0.242880000000     0.963060000000     0.148130000000     0.0438988  
H96      H      0.300370000000     0.049730000000     0.139170000000     0.0353547  
H97      H      0.240320000000     0.900850000000     0.253890000000     0.0399448  
H98      H      0.261590000000     0.084100000000     0.175300000000     0.0183189  
H99      H      0.204530000000     0.940380000000     0.256410000000     0.0374813  
H100     H      0.244870000000     0.941770000000     0.261960000000     0.0374626  
H101     H      0.263350000000     0.007370000000     0.133340000000     0.0397998  
H102     H      0.259690000000     0.043150000000     0.128030000000     0.0459968  
H103     H      0.183380000000     0.898020000000     0.201120000000     0.036062   
H104     H      0.254710000000     0.096730000000     0.121850000000     0.0934292  
H105     H      0.272690000000     0.087690000000     0.097420000000     0.0917621  
H106     H      0.419870000000     0.355430000000     0.030320000000     0.0405074  
H107     H      0.420710000000     0.289180000000     0.116950000000     0.034317   
H108     H      0.351340000000     0.286450000000     0.108760000000     0.0447029  
H109     H      0.480190000000     0.436940000000     0.091360000000     0.0377719  
H110     H      0.394010000000     0.247370000000     0.100130000000     0.0372116  
H111     H      0.401630000000     0.392070000000     0.074070000000     0.0341547  
H112     H      0.471780000000     0.395670000000     0.077040000000     0.0343316  
H113     H      0.421150000000     0.433730000000     0.043850000000     0.0404362  
H114     H      0.398630000000     0.310670000000     0.042820000000     0.0440865  
H115     H      0.398860000000     0.246930000000     0.147470000000     0.0376325  
H116     H      0.424390000000     0.370380000000     0.144210000000     0.0440528  
H117     H      0.402970000000     0.286790000000     0.156630000000     0.0349266  
H118     H      0.491650000000     0.437370000000     0.046870000000     0.0408312  
H119     H      0.338690000000     0.244890000000     0.096740000000     0.0172376  
H120     H      0.417360000000     0.393580000000     0.032510000000     0.0373004  
H121     H      0.458030000000     0.395690000000     0.034230000000     0.0372187  
H122     H      0.403160000000     0.325710000000     0.156730000000     0.0395653  
H123     H      0.364520000000     0.286620000000     0.151900000000     0.0457257  
H124     H      0.431350000000     0.434430000000     0.089270000000     0.0368505  
H125     H      0.310190000000     0.228340000000     0.141140000000     0.0928719  
H126     H      0.331880000000     0.240150000000     0.175760000000     0.0902178  
H127     H      0.659380000000     0.837240000000     0.605960000000     0.0402616  
H128     H      0.701150000000     0.831190000000     0.496590000000     0.0339988  
H129     H      0.624690000000     0.777960000000     0.487060000000     0.0446102  
H130     H      0.673210000000     0.786290000000     0.706680000000     0.0366191  
H131     H      0.690850000000     0.843640000000     0.442340000000     0.0397089  
H132     H      0.618110000000     0.791850000000     0.648420000000     0.0344821  
H133     H      0.693780000000     0.809670000000     0.652610000000     0.0334979  
H134     H      0.618900000000     0.800640000000     0.714420000000     0.0408031  
H135     H      0.661160000000     0.839770000000     0.540140000000     0.0440169  
H136     H      0.705910000000     0.826810000000     0.429110000000     0.0367179  
H137     H      0.657990000000     0.767290000000     0.601190000000     0.0436482  
H138     H      0.691180000000     0.800230000000     0.481030000000     0.0355654  
H139     H      0.695270000000     0.817860000000     0.718510000000     0.0388322  
H140     H      0.628950000000     0.796250000000     0.431400000000     0.0186368  
H141     H      0.641570000000     0.822980000000     0.660770000000     0.0376789  
H142     H      0.686150000000     0.833440000000     0.663010000000     0.0373671  
H143     H      0.661860000000     0.770820000000     0.535620000000     0.0396331  
H144     H      0.648290000000     0.769860000000     0.478900000000     0.0455129  
H145     H      0.623790000000     0.775200000000     0.704390000000     0.0357016  
H146     H      0.620120000000     0.763700000000     0.395740000000     0.0932744  
H147     H      0.646930000000     0.762870000000     0.406550000000     0.0913652  
H148     H      0.676570000000     0.888590000000     0.110130000000     0.0403936  
H149     H      0.714280000000     0.882060000000     0.981310000000     0.0348819  
H150     H      0.637150000000     0.857480000000     0.990440000000     0.0460443  
H151     H      0.707690000000     0.847340000000     0.193640000000     0.037276   
H152     H      0.701850000000     0.899610000000     0.932200000000     0.0343854  
H153     H      0.637580000000     0.823130000000     0.136530000000     0.0339367  
H154     H      0.714130000000     0.876580000000     0.147260000000     0.0342722  
H155     H      0.633580000000     0.819580000000     0.204090000000     0.0391306  
H156     H      0.677060000000     0.898270000000     0.045970000000     0.0439895  
H157     H      0.710970000000     0.878530000000     0.914780000000     0.0404315  
H158     H      0.675600000000     0.820800000000     0.082440000000     0.0440182  
H159     H      0.692370000000     0.850910000000     0.966820000000     0.0392821  
H160     H      0.709200000000     0.873740000000     0.215320000000     0.0402932  
H161     H      0.653600000000     0.884070000000     0.937650000000     0.0166343  
H162     H      0.647060000000     0.852150000000     0.159100000000     0.0372744  
H163     H      0.690660000000     0.882720000000     0.165040000000     0.0360361  
H164     H      0.674420000000     0.829640000000     0.018490000000     0.0404797  
H165     H      0.646300000000     0.836110000000     0.973160000000     0.04634    
H166     H      0.651850000000     0.807560000000     0.184540000000     0.0386218  
H167     H      0.621830000000     0.857280000000     0.899220000000     0.0954186  
H168     H      0.622810000000     0.831050000000     0.914100000000     0.0939731  
H169     H      0.738510000000     0.735970000000     0.304880000000     0.0401532  
H170     H      0.740190000000     0.670110000000     0.217320000000     0.0342217  
H171     H      0.802020000000     0.742710000000     0.209960000000     0.0453066  
H172     H      0.673700000000     0.757220000000     0.252590000000     0.0387096  
H173     H      0.775620000000     0.664710000000     0.225060000000     0.0376077  
H174     H      0.753850000000     0.788440000000     0.266160000000     0.0342933  
H175     H      0.682150000000     0.724400000000     0.264810000000     0.0339226  
H176     H      0.736200000000     0.811450000000     0.300210000000     0.0400505  
H177     H      0.761600000000     0.715180000000     0.286260000000     0.0438059  
H178     H      0.763180000000     0.653920000000     0.181020000000     0.0387958  
H179     H      0.722740000000     0.742690000000     0.193700000000     0.0442533  
H180     H      0.750680000000     0.684770000000     0.174030000000     0.0356382  
H181     H      0.665140000000     0.748400000000     0.298540000000     0.037571   
H182     H      0.821720000000     0.718720000000     0.215890000000     0.016895   
H183     H      0.738190000000     0.774210000000     0.307700000000     0.0357981  
H184     H      0.697470000000     0.737740000000     0.306890000000     0.0359606  
H185     H      0.744860000000     0.721070000000     0.175150000000     0.0395234  
H186     H      0.785170000000     0.726680000000     0.170150000000     0.0457324  
H187     H      0.727280000000     0.805000000000     0.253910000000     0.0378159  
H188     H      0.845850000000     0.734630000000     0.166340000000     0.0932982  
H189     H      0.820860000000     0.722390000000     0.136210000000     0.0928691  
H190     H      0.613760000000     0.900300000000     0.428630000000     0.0405749  
H191     H      0.605570000000     0.982200000000     0.424630000000     0.0342894  
H192     H      0.539330000000     0.912540000000     0.420520000000     0.0453225  
H193     H      0.661350000000     0.904500000000     0.315550000000     0.0372019  
H194     H      0.579810000000     0.983810000000     0.471640000000     0.0357186  
H195     H      0.585580000000     0.865710000000     0.351570000000     0.0342087  
H196     H      0.658260000000     0.927110000000     0.366090000000     0.0341709  
H197     H      0.603500000000     0.838330000000     0.338170000000     0.0404818  
H198     H      0.593630000000     0.921200000000     0.457710000000     0.0438673  
H199     H      0.580690000000     0.003220000000     0.435420000000     0.0404137  
H200     H      0.603610000000     0.925180000000     0.324930000000     0.0440525  
H201     H      0.582540000000     0.976260000000     0.390490000000     0.0363346  
H202     H      0.676650000000     0.899840000000     0.353290000000     0.0406026  
H203     H      0.531350000000     0.933800000000     0.467300000000     0.0162957  
H204     H      0.605110000000     0.865020000000     0.387080000000     0.0376499  
H205     H      0.647230000000     0.900640000000     0.395580000000     0.0371222  
H206     H      0.583150000000     0.945690000000     0.353810000000     0.0397459  
H207     H      0.545030000000     0.935930000000     0.387420000000     0.0462007  
H208     H      0.610850000000     0.862130000000     0.305240000000     0.0370592  
H209     H      0.494150000000     0.925860000000     0.444100000000     0.0929538  
H210     H      0.506870000000     0.942600000000     0.404500000000     0.0929023  
H211     H      0.018910000000     0.562180000000     0.774240000000     0.0401129  
H212     H      0.059250000000     0.549720000000     0.652020000000     0.0346087  
H213     H      0.980820000000     0.516540000000     0.660680000000     0.0458416  
H214     H      0.055820000000     0.534280000000     0.870760000000     0.0389009  
H215     H      0.044180000000     0.560130000000     0.598190000000     0.0347843  
H216     H      0.983830000000     0.499930000000     0.809160000000     0.0339684  
H217     H      0.058680000000     0.557630000000     0.819360000000     0.0341593  
H218     H      0.979220000000     0.500660000000     0.877370000000     0.0374965  
H219     H      0.018520000000     0.565740000000     0.708400000000     0.0439006  
H220     H      0.055810000000     0.539810000000     0.586970000000     0.040799   
H221     H      0.025920000000     0.496940000000     0.763240000000     0.0446562  
H222     H      0.040160000000     0.516930000000     0.643080000000     0.0381474  
H223     H      0.050640000000     0.558130000000     0.887800000000     0.0376188  
H224     H      0.992390000000     0.537640000000     0.603250000000     0.0167923  
H225     H      0.991410000000     0.529530000000     0.828050000000     0.0358299  
H226     H      0.033270000000     0.562080000000     0.832880000000     0.0343269  
H227     H      0.024130000000     0.499630000000     0.697770000000     0.0403534  
H228     H      0.994060000000     0.497360000000     0.649430000000     0.0466382  
H229     H      0.996750000000     0.487080000000     0.860680000000     0.0402588  
H230     H      0.962220000000     0.504430000000     0.571780000000     0.0941669  
H231     H      0.971640000000     0.483760000000     0.586930000000     0.0927887  
H232     H      0.013040000000     0.509040000000     0.269900000000     0.0406261  
H233     H      0.056410000000     0.498490000000     0.161230000000     0.0339865  
H234     H      0.978640000000     0.459920000000     0.145160000000     0.0449825  
H235     H      0.030710000000     0.462310000000     0.371260000000     0.0366311  
H236     H      0.049220000000     0.514340000000     0.107760000000     0.0415466  
H237     H      0.971960000000     0.461170000000     0.312170000000     0.0342638  
H238     H      0.049350000000     0.485850000000     0.316760000000     0.0338816  
H239     H      0.971980000000     0.470480000000     0.377840000000     0.0400155  
H240     H      0.015090000000     0.511430000000     0.204000000000     0.0450323  
H241     H      0.059220000000     0.493440000000     0.092580000000     0.0302754  
H242     H      0.013170000000     0.439800000000     0.266010000000     0.0437438  
H243     H      0.042350000000     0.467150000000     0.144770000000     0.0336389  
H244     H      0.050020000000     0.494570000000     0.382400000000     0.0402957  
H245     H      0.981560000000     0.454510000000     0.086360000000     0.023164   
H246     H      0.993390000000     0.493080000000     0.323900000000     0.0375527  
H247     H      0.038740000000     0.507490000000     0.326510000000     0.0382331  
H248     H      0.016900000000     0.443070000000     0.200230000000     0.0400081  
H249     H      0.991380000000     0.440200000000     0.152390000000     0.0452422  
H250     H      0.979100000000     0.446400000000     0.368660000000     0.034842   
H251     H      0.000850000000     0.433870000000     0.061790000000     0.0909243  
H252     H      0.019280000000     0.438960000000     0.098700000000     0.0841052  
H253     H      0.913810000000     0.597510000000     0.009820000000     0.0441734  
H254     H      0.926730000000     0.526460000000     0.042210000000     0.0345366  
H255     H      0.993730000000     0.595530000000     0.043440000000     0.0454226  
H256     H      0.853640000000     0.600140000000     0.065530000000     0.0375181  
H257     H      0.958250000000     0.516440000000     0.057670000000     0.0371514  
H258     H      0.933130000000     0.644290000000     0.074310000000     0.0343046  
H259     H      0.869090000000     0.572860000000     0.082200000000     0.034332   
H260     H      0.909810000000     0.663050000000     0.103650000000     0.0404149  
H261     H      0.938840000000     0.577770000000     0.997820000000     0.0398568  
H262     H      0.948590000000     0.506760000000     0.012300000000     0.0408025  
H263     H      0.924070000000     0.593350000000     0.123900000000     0.0406058  
H264     H      0.941870000000     0.541020000000     0.000510000000     0.036407   
H265     H      0.845570000000     0.591300000000     0.111670000000     0.0408731  
H266     H      0.007490000000     0.566810000000     0.056150000000     0.0182508  
H267     H      0.920650000000     0.631490000000     0.118010000000     0.0373315  
H268     H      0.883560000000     0.590180000000     0.122600000000     0.0371161  
H269     H      0.948830000000     0.573200000000     0.111950000000     0.0443549  
H270     H      0.979600000000     0.581060000000     0.001350000000     0.0460938  
H271     H      0.898440000000     0.650120000000     0.059900000000     0.0379216  
H272     H      0.037010000000     0.581220000000     0.012510000000     0.0939968  
H273     H      0.015850000000     0.573140000000     0.977130000000     0.0928765  
H274     H      0.302880000000     0.121460000000     0.854930000000     0.0396965  
H275     H      0.361850000000     0.133070000000     0.983500000000     0.0339861  
H276     H      0.318070000000     0.165540000000     0.955780000000     0.0444671  
H277     H      0.344980000000     0.109160000000     0.756200000000     0.035713   
H278     H      0.337030000000     0.125280000000     0.035710000000     0.0347214  
H279     H      0.371200000000     0.176420000000     0.813550000000     0.0330362  
H280     H      0.318370000000     0.099230000000     0.808710000000     0.03382    
H281     H      0.369800000000     0.179900000000     0.747640000000     0.0406595  
H282     H      0.300080000000     0.124460000000     0.919740000000     0.0428789  
H283     H      0.366970000000     0.150900000000     0.046460000000     0.0397835  
H284     H      0.382950000000     0.155800000000     0.863300000000     0.0426371  
H285     H      0.374490000000     0.166230000000     0.986340000000     0.0356069  
H286     H      0.314570000000     0.102400000000     0.741720000000     0.0399703  
H287     H      0.303090000000     0.148340000000     0.013870000000     0.0188376  
H288     H      0.339950000000     0.166380000000     0.798310000000     0.0389296  
H289     H      0.308950000000     0.121370000000     0.795510000000     0.0367431  
H290     H      0.380360000000     0.161210000000     0.927510000000     0.0395094  
H291     H      0.349780000000     0.184230000000     0.970480000000     0.0473961  
H292     H      0.380080000000     0.158650000000     0.760990000000     0.036587   
H293     H      0.307570000000     0.183990000000     0.037870000000     0.094105   
H294     H      0.339510000000     0.200930000000     0.031230000000     0.0900741  
H295     H      0.311790000000     0.137290000000     0.435250000000     0.0407665  
H296     H      0.274110000000     0.154250000000     0.309060000000     0.0344844  
H297     H      0.351150000000     0.184660000000     0.328900000000     0.0448068  
H298     H      0.269860000000     0.156940000000     0.532940000000     0.0359113  
H299     H      0.286430000000     0.140950000000     0.257410000000     0.0372453  
H300     H      0.336500000000     0.201020000000     0.475380000000     0.0339414  
H301     H      0.267070000000     0.133810000000     0.478840000000     0.0344724  
H302     H      0.341690000000     0.199190000000     0.541280000000     0.040998   
H303     H      0.315570000000     0.136280000000     0.369800000000     0.0443147  
H304     H      0.284260000000     0.167240000000     0.243240000000     0.0385893  
H305     H      0.295690000000     0.196940000000     0.424880000000     0.0435603  
H306     H      0.295730000000     0.186570000000     0.300440000000     0.0344484  
H307     H      0.272120000000     0.130240000000     0.545380000000     0.0406893  
H308     H      0.346960000000     0.164940000000     0.273180000000     0.0199413  
H309     H      0.335930000000     0.172810000000     0.488630000000     0.0391568  
H310     H      0.294970000000     0.133070000000     0.490660000000     0.0378117  
H311     H      0.301380000000     0.197230000000     0.359720000000     0.0396163  
H312     H      0.338860000000     0.203660000000     0.312830000000     0.0461718  
H313     H      0.314490000000     0.201050000000     0.529630000000     0.0363152  
H314     H      0.376150000000     0.198840000000     0.243410000000     0.0941162  
H315     H      0.360310000000     0.215130000000     0.247010000000     0.0887861  
H316     H      0.414680000000     0.092230000000     0.610200000000     0.0405995  
H317     H      0.415680000000     0.024590000000     0.530760000000     0.0343326  
H318     H      0.479510000000     0.095180000000     0.516430000000     0.0452407  
H319     H      0.341800000000     0.098640000000     0.556500000000     0.0369735  
H320     H      0.449260000000     0.017010000000     0.541430000000     0.0378808  
H321     H      0.421010000000     0.141990000000     0.566330000000     0.03436    
H322     H      0.356830000000     0.070410000000     0.569480000000     0.0340088  
H323     H      0.397780000000     0.159460000000     0.599660000000     0.0405802  
H324     H      0.439690000000     0.072910000000     0.594600000000     0.0442852  
H325     H      0.437000000000     0.005020000000     0.497770000000     0.0393528  
H326     H      0.397560000000     0.093460000000     0.497960000000     0.0440212  
H327     H      0.426400000000     0.036640000000     0.486200000000     0.0359914  
H328     H      0.333260000000     0.087580000000     0.601790000000     0.040382   
H329     H      0.497970000000     0.070580000000     0.526960000000     0.0179046  
H330     H      0.408540000000     0.127400000000     0.609180000000     0.0371624  
H331     H      0.371310000000     0.086020000000     0.610980000000     0.0373682  
H332     H      0.422090000000     0.073740000000     0.482400000000     0.0397741  
H333     H      0.461860000000     0.077280000000     0.478270000000     0.0460653  
H334     H      0.386520000000     0.148690000000     0.555040000000     0.0367617  
H335     H      0.521140000000     0.082010000000     0.476230000000     0.0933255  
H336     H      0.495680000000     0.067820000000     0.447270000000     0.0924595  
H337     H      0.108380000000     0.392120000000     0.929340000000     0.0450292  
H338     H      0.038960000000     0.411960000000     0.911070000000     0.0343882  
H339     H      0.110040000000     0.474310000000     0.929870000000     0.045018   
H340     H      0.106610000000     0.338060000000     0.861080000000     0.0408395  
H341     H      0.030590000000     0.445250000000     0.909300000000     0.0381643  
H342     H      0.155700000000     0.420940000000     0.858050000000     0.0344082  
H343     H      0.083600000000     0.358000000000     0.851720000000     0.0340195  
H344     H      0.170440000000     0.396620000000     0.816420000000     0.0373732  
H345     H      0.088870000000     0.415030000000     0.953200000000     0.0396867  
H346     H      0.019950000000     0.430540000000     0.952080000000     0.0380232  
H347     H      0.105810000000     0.417510000000     0.822280000000     0.0403149  
H348     H      0.051710000000     0.419340000000     0.955890000000     0.0352815  
H349     H      0.102790000000     0.336890000000     0.813390000000     0.0367698  
H350     H      0.085800000000     0.493590000000     0.927650000000     0.0184019  
H351     H      0.140370000000     0.409530000000     0.815480000000     0.0344173  
H352     H      0.100480000000     0.374040000000     0.811890000000     0.0350762  
H353     H      0.086660000000     0.440960000000     0.846240000000     0.0442727  
H354     H      0.092510000000     0.453830000000     0.966050000000     0.0457228  
H355     H      0.167380000000     0.390880000000     0.863640000000     0.0402074  
H356     H      0.097120000000     0.511760000000     0.982180000000     0.0930884  
H357     H      0.082220000000     0.484070000000     0.006120000000     0.0908607  
H358     H      0.217200000000     0.243520000000     0.738560000000     0.0408965  
H359     H      0.294560000000     0.235670000000     0.720990000000     0.0343371  
H360     H      0.229700000000     0.165150000000     0.729020000000     0.0454355  
H361     H      0.230960000000     0.282250000000     0.863650000000     0.0357506  
H362     H      0.295060000000     0.213810000000     0.668110000000     0.037304   
H363     H      0.181920000000     0.216370000000     0.811910000000     0.0344449  
H364     H      0.253810000000     0.280630000000     0.811380000000     0.0341576  
H365     H      0.162910000000     0.241750000000     0.831860000000     0.0408686  
H366     H      0.234940000000     0.223820000000     0.700800000000     0.0442854  
H367     H      0.318620000000     0.216110000000     0.698420000000     0.0401487  
H368     H      0.242940000000     0.223310000000     0.833690000000     0.0438803  
H369     H      0.293960000000     0.212500000000     0.750820000000     0.036331   
H370     H      0.236210000000     0.306560000000     0.832670000000     0.0411972  
H371     H      0.248700000000     0.161300000000     0.675830000000     0.0173688  
H372     H      0.187660000000     0.241080000000     0.781020000000     0.0382882  
H373     H      0.230530000000     0.279520000000     0.780920000000     0.0388675  
H374     H      0.261220000000     0.204190000000     0.795980000000     0.0397115  
H375     H      0.256410000000     0.172620000000     0.756620000000     0.0456496  
H376     H      0.184770000000     0.241630000000     0.863610000000     0.036034   
H377     H      0.247890000000     0.125990000000     0.693500000000     0.0937745  
H378     H      0.267820000000     0.139720000000     0.730110000000     0.0932393  
H379     H      0.509410000000     0.510510000000     0.796940000000     0.0407279  
H380     H      0.488220000000     0.453390000000     0.673870000000     0.0346029  
H381     H      0.469230000000     0.509570000000     0.684810000000     0.0447793  
H382     H      0.479600000000     0.447360000000     0.893660000000     0.0356886  
H383     H      0.507610000000     0.477460000000     0.622380000000     0.0372598  
H384     H      0.443820000000     0.478760000000     0.834690000000     0.0338718  
H385     H      0.505050000000     0.466070000000     0.840650000000     0.0344833  
H386     H      0.445520000000     0.485470000000     0.900750000000     0.0404862  
H387     H      0.513140000000     0.515170000000     0.731480000000     0.0443962  
H388     H      0.479110000000     0.451960000000     0.606490000000     0.0393024  
H389     H      0.442470000000     0.439540000000     0.784520000000     0.0435288  
H390     H      0.457810000000     0.447930000000     0.661030000000     0.034797   
H391     H      0.508370000000     0.473920000000     0.907270000000     0.040872   
H392     H      0.492150000000     0.522080000000     0.631040000000     0.0201216  
H393     H      0.473770000000     0.503710000000     0.849050000000     0.0390569  
H394     H      0.509920000000     0.496300000000     0.852710000000     0.0379086  
H395     H      0.445050000000     0.445170000000     0.719190000000     0.0397662  
H396     H      0.447040000000     0.479210000000     0.668590000000     0.0464708  
H397     H      0.439230000000     0.454840000000     0.888920000000     0.0363779  
H398     H      0.462190000000     0.521850000000     0.595660000000     0.0944195  
H399     H      0.441740000000     0.490350000000     0.600250000000     0.0894165  
H400     H      0.536400000000     0.506620000000     0.275300000000     0.0429064  
H401     H      0.473520000000     0.500690000000     0.157850000000     0.0417775  
H402     H      0.547420000000     0.556290000000     0.169910000000     0.045313   
H403     H      0.547360000000     0.548930000000     0.389110000000     0.0360621  
H404     H      0.464690000000     0.522470000000     0.113200000000     0.0389355  
H405     H      0.503290000000     0.485390000000     0.322370000000     0.03328    
H406     H      0.532280000000     0.562590000000     0.339410000000     0.0335529  
H407     H      0.497350000000     0.477640000000     0.387840000000     0.0396879  
H408     H      0.530240000000     0.507110000000     0.210090000000     0.0451079  
H409     H      0.486400000000     0.552280000000     0.131450000000     0.0290525  
H410     H      0.498420000000     0.548360000000     0.291040000000     0.0390179  
H411     H      0.472400000000     0.525020000000     0.181570000000     0.0319137  
H412     H      0.523570000000     0.554650000000     0.405870000000     0.0405662  
H413     H      0.537830000000     0.536210000000     0.113020000000     0.025572   
H414     H      0.483790000000     0.496400000000     0.341100000000     0.0390299  
H415     H      0.500130000000     0.540770000000     0.350390000000     0.0370041  
H416     H      0.495140000000     0.551180000000     0.226410000000     0.0397305  
H417     H      0.525890000000     0.567620000000     0.164840000000     0.0448562  
H418     H      0.529540000000     0.497150000000     0.375610000000     0.0377389  
H419     H      0.548420000000     0.569320000000     0.073650000000     0.0919466  
H420     H      0.535790000000     0.582520000000     0.100590000000     0.0837807  
H421     H      0.836110000000     0.151380000000     0.826640000000     0.0405293  
H422     H      0.889280000000     0.162470000000     0.937220000000     0.0340721  
H423     H      0.847550000000     0.198350000000     0.952580000000     0.0449742  
H424     H      0.902130000000     0.199870000000     0.727770000000     0.0369103  
H425     H      0.865710000000     0.145750000000     0.990180000000     0.0418184  
H426     H      0.842690000000     0.199240000000     0.784250000000     0.0344586  
H427     H      0.896420000000     0.175940000000     0.782080000000     0.0338607  
H428     H      0.834700000000     0.190330000000     0.718140000000     0.0409728  
H429     H      0.834870000000     0.148320000000     0.892540000000     0.0449087  
H430     H      0.896370000000     0.167150000000     0.005970000000     0.0319613  
H431     H      0.904610000000     0.221510000000     0.833070000000     0.0437099  
H432     H      0.905560000000     0.193760000000     0.954100000000     0.0338375  
H433     H      0.889750000000     0.167790000000     0.716130000000     0.040441   
H434     H      0.855530000000     0.203910000000     0.011490000000     0.0230232  
H435     H      0.832960000000     0.167580000000     0.772200000000     0.0374491  
H436     H      0.864440000000     0.154010000000     0.770930000000     0.038064   
H437     H      0.904130000000     0.217680000000     0.898860000000     0.0400316  
H438     H      0.879890000000     0.219190000000     0.945850000000     0.0453648  
H439     H      0.865520000000     0.214890000000     0.728630000000     0.0361911  
H440     H      0.895290000000     0.225730000000     0.036690000000     0.0910087  
H441     H      0.909350000000     0.221470000000     0.999990000000     0.0846322  
H442     H      0.853920000000     0.162420000000     0.318950000000     0.0402409  
H443     H      0.799970000000     0.147730000000     0.439140000000     0.0345498  
H444     H      0.850410000000     0.120680000000     0.436420000000     0.0446064  
H445     H      0.785400000000     0.128240000000     0.227530000000     0.0350267  
H446     H      0.823430000000     0.167190000000     0.490710000000     0.0377265  
H447     H      0.828520000000     0.101970000000     0.277700000000     0.0339523  
H448     H      0.801840000000     0.152910000000     0.281720000000     0.0342025  
H449     H      0.834620000000     0.108010000000     0.211100000000     0.0395663  
H450     H      0.859210000000     0.167380000000     0.384420000000     0.0444399  
H451     H      0.796510000000     0.140410000000     0.507680000000     0.0383601  
H452     H      0.783740000000     0.094960000000     0.333970000000     0.0436575  
H453     H      0.790960000000     0.117020000000     0.454950000000     0.0345492  
H454     H      0.807540000000     0.159570000000     0.215310000000     0.0403399  
H455     H      0.864380000000     0.144420000000     0.488760000000     0.020594   
H456     H      0.849380000000     0.133880000000     0.265380000000     0.0376178  
H457     H      0.833540000000     0.164060000000     0.267400000000     0.0373557  
H458     H      0.789710000000     0.099160000000     0.399390000000     0.0397415  
H459     H      0.818990000000     0.101670000000     0.452000000000     0.0459567  
H460     H      0.802640000000     0.095000000000     0.224800000000     0.035732   
H461     H      0.858290000000     0.114030000000     0.528060000000     0.0941696  
H462     H      0.826310000000     0.097440000000     0.522410000000     0.0892718  
H463     H      0.180470000000     0.349980000000     0.608480000000     0.0400645  
H464     H      0.186640000000     0.312730000000     0.470550000000     0.0412349  
H465     H      0.124630000000     0.315560000000     0.507030000000     0.0450777  
H466     H      0.199110000000     0.311090000000     0.706660000000     0.035753   
H467     H      0.164840000000     0.285100000000     0.422740000000     0.0394231  
H468     H      0.127890000000     0.287090000000     0.655880000000     0.0334328  
H469     H      0.206280000000     0.335070000000     0.652710000000     0.0339677  
H470     H      0.128200000000     0.291990000000     0.722570000000     0.0392062  
H471     H      0.176470000000     0.350290000000     0.543180000000     0.0441937  
H472     H      0.135960000000     0.270180000000     0.446990000000     0.0297441  
H473     H      0.148020000000     0.270300000000     0.606340000000     0.0428772  
H474     H      0.167310000000     0.283550000000     0.491810000000     0.032422   
H475     H      0.206430000000     0.341690000000     0.719810000000     0.0406327  
H476     H      0.138950000000     0.333420000000     0.449360000000     0.0244118  
H477     H      0.141350000000     0.319020000000     0.669570000000     0.0385927  
H478     H      0.186200000000     0.346630000000     0.667700000000     0.03682    
H479     H      0.141720000000     0.270580000000     0.541260000000     0.0401111  
H480     H      0.118030000000     0.285070000000     0.493410000000     0.0450111  
H481     H      0.144480000000     0.276500000000     0.707520000000     0.0378163  
H482     H      0.103960000000     0.309740000000     0.413440000000     0.0924813  
H483     H      0.097150000000     0.282430000000     0.434040000000     0.0848598  
H484     H      0.153330000000     0.302480000000     0.063340000000     0.0399908  
H485     H      0.208490000000     0.350030000000     0.155910000000     0.0337378  
H486     H      0.148000000000     0.362340000000     0.173000000000     0.0445793  
H487     H      0.193910000000     0.363210000000     0.948460000000     0.0394363  
H488     H      0.194460000000     0.333880000000     0.213180000000     0.0434479  
H489     H      0.128870000000     0.310560000000     0.007860000000     0.0340579  
H490     H      0.207270000000     0.358040000000     0.006790000000     0.0332955  
H491     H      0.131740000000     0.295590000000     0.944980000000     0.0402278  
H492     H      0.156420000000     0.310740000000     0.127820000000     0.0448796  
H493     H      0.219780000000     0.364250000000     0.222870000000     0.0294169  
H494     H      0.185210000000     0.380790000000     0.041920000000     0.043283   
H495     H      0.214950000000     0.380820000000     0.167020000000     0.0336706  
H496     H      0.208750000000     0.344950000000     0.943270000000     0.0382075  
H497     H      0.157920000000     0.372960000000     0.230870000000     0.0222375  
H498     H      0.149470000000     0.298050000000     0.002850000000     0.0357223  
H499     H      0.193700000000     0.325000000000     0.001550000000     0.0377133  
H500     H      0.190680000000     0.389180000000     0.106470000000     0.0399556  
H501     H      0.176930000000     0.389040000000     0.161460000000     0.0441786  
H502     H      0.136070000000     0.326180000000     0.947980000000     0.0374739  
H503     H      0.196090000000     0.406000000000     0.250240000000     0.090595   
H504     H      0.211330000000     0.405930000000     0.211950000000     0.0843579  
H505     H      0.046380000000     0.268520000000     0.195300000000     0.0408187  
H506     H      0.963580000000     0.186010000000     0.162500000000     0.0340952  
H507     H      0.954640000000     0.246260000000     0.195040000000     0.0454655  
H508     H      0.081110000000     0.248920000000     0.306350000000     0.0363384  
H509     H      0.939190000000     0.191120000000     0.116130000000     0.0352945  
H510     H      0.041300000000     0.286550000000     0.281580000000     0.0341527  
H511     H      0.061650000000     0.233870000000     0.248310000000     0.0342184  
H512     H      0.083720000000     0.313570000000     0.306890000000     0.0406152  
H513     H      0.008800000000     0.251280000000     0.157580000000     0.0438793  
H514     H      0.919950000000     0.163180000000     0.140700000000     0.0408232  
H515     H      0.002480000000     0.223160000000     0.284170000000     0.0439005  
H516     H      0.941080000000     0.181410000000     0.196840000000     0.0366785  
H517     H      0.104980000000     0.261090000000     0.272490000000     0.0405137  
H518     H      0.931410000000     0.232250000000     0.140200000000     0.0159828  
H519     H      0.065740000000     0.295410000000     0.248680000000     0.0381122  
H520     H      0.077480000000     0.264580000000     0.229000000000     0.0377325  
H521     H      0.964940000000     0.206050000000     0.246650000000     0.0397536  
H522     H      0.936760000000     0.216540000000     0.216620000000     0.045837   
H523     H      0.066700000000     0.284110000000     0.329100000000     0.0350748  
H524     H      0.896380000000     0.230070000000     0.163630000000     0.0937693  
H525     H      0.892290000000     0.208340000000     0.196700000000     0.0934159  
H526     H      0.367830000000     0.455680000000     0.391170000000     0.0403214  
H527     H      0.287110000000     0.377130000000     0.375900000000     0.0341321  
H528     H      0.272010000000     0.434270000000     0.403560000000     0.0454348  
H529     H      0.402500000000     0.435590000000     0.504110000000     0.0365753  
H530     H      0.259190000000     0.376720000000     0.330300000000     0.0359135  
H531     H      0.379750000000     0.486270000000     0.468060000000     0.0341583  
H532     H      0.376020000000     0.416990000000     0.452330000000     0.0339611  
H533     H      0.425430000000     0.506080000000     0.482200000000     0.0400427  
H534     H      0.327640000000     0.437700000000     0.359730000000     0.0436361  
H535     H      0.243210000000     0.349760000000     0.358240000000     0.0406967  
H536     H      0.329690000000     0.422810000000     0.490620000000     0.0439695  
H537     H      0.265440000000     0.372330000000     0.411640000000     0.0371904  
H538     H      0.421360000000     0.436120000000     0.467060000000     0.0402922  
H539     H      0.246420000000     0.415580000000     0.351970000000     0.0158949  
H540     H      0.397990000000     0.483140000000     0.432770000000     0.0370136  
H541     H      0.395840000000     0.442880000000     0.423710000000     0.0373713  
H542     H      0.289620000000     0.404200000000     0.459090000000     0.0400145  
H543     H      0.257740000000     0.405710000000     0.428660000000     0.0459096  
H544     H      0.405440000000     0.483490000000     0.514600000000     0.0352502  
H545     H      0.210790000000     0.410050000000     0.378150000000     0.0938518  
H546     H      0.210850000000     0.390810000000     0.412400000000     0.0947399  
H547     H      0.502860000000     0.010580000000     0.763370000000     0.0408357  
H548     H      0.559020000000     0.043130000000     0.641540000000     0.0346864  
H549     H      0.503670000000     0.967690000000     0.651590000000     0.0446467  
H550     H      0.568220000000     0.041680000000     0.859030000000     0.0357283  
H551     H      0.536090000000     0.038650000000     0.589040000000     0.0380173  
H552     H      0.526380000000     0.973080000000     0.806110000000     0.0340397  
H553     H      0.552950000000     0.050550000000     0.804040000000     0.0345436  
H554     H      0.519150000000     0.971920000000     0.872260000000     0.0405634  
H555     H      0.498380000000     0.008970000000     0.697700000000     0.0445327  
H556     H      0.561560000000     0.035270000000     0.574000000000     0.0383178  
H557     H      0.571230000000     0.008690000000     0.752870000000     0.0437662  
H558     H      0.565360000000     0.018810000000     0.629430000000     0.0344973  
H559     H      0.545390000000     0.050280000000     0.870340000000     0.041053   
H560     H      0.491140000000     0.976800000000     0.597150000000     0.0203933  
H561     H      0.505290000000     0.984080000000     0.817830000000     0.0384888  
H562     H      0.520970000000     0.029880000000     0.816760000000     0.0381606  
H563     H      0.565920000000     0.005470000000     0.687350000000     0.0397738  
H564     H      0.534550000000     0.976620000000     0.636460000000     0.0460879  
H565     H      0.551340000000     0.991200000000     0.859970000000     0.0365703  
H566     H      0.494060000000     0.948720000000     0.561740000000     0.093896   
H567     H      0.525850000000     0.961500000000     0.567550000000     0.0892826  
H568     H      0.514580000000     0.999960000000     0.251730000000     0.0403371  
H569     H      0.456930000000     0.963320000000     0.142470000000     0.0340433  
H570     H      0.502260000000     0.040940000000     0.132900000000     0.044942   
H571     H      0.454280000000     0.987500000000     0.357750000000     0.0370343  
H572     H      0.478530000000     0.969750000000     0.087950000000     0.0423012  
H573     H      0.513730000000     0.043300000000     0.296070000000     0.0342692  
H574     H      0.456300000000     0.968070000000     0.302420000000     0.0336865  
H575     H      0.524260000000     0.042320000000     0.361190000000     0.0399728  
H576     H      0.513380000000     0.999140000000     0.185690000000     0.04487    
H577     H      0.448620000000     0.964450000000     0.074030000000     0.0317279  
H578     H      0.448890000000     0.007220000000     0.253730000000     0.0437021  
H579     H      0.442230000000     0.980780000000     0.129170000000     0.0335083  
H580     H      0.465900000000     0.966840000000     0.367710000000     0.0382478  
H581     H      0.494420000000     0.041240000000     0.074330000000     0.0237479  
H582     H      0.521570000000     0.019720000000     0.306810000000     0.0368962  
H583     H      0.488170000000     0.976030000000     0.310400000000     0.0370008  
H584     H      0.446780000000     0.004800000000     0.187760000000     0.0398268  
H585     H      0.470170000000     0.030630000000     0.140480000000     0.0450659  
H586     H      0.494170000000     0.039050000000     0.353740000000     0.0349964  
H587     H      0.454740000000     0.026430000000     0.049690000000     0.0903152  
H588     H      0.440090000000     0.007470000000     0.085560000000     0.0844212  
H589     H      0.652830000000     0.059050000000     0.985140000000     0.0407449  
H590     H      0.728230000000     0.127300000000     0.051420000000     0.0345051  
H591     H      0.727100000000     0.058750000000     0.055490000000     0.0458785  
H592     H      0.582810000000     0.057760000000     0.057880000000     0.0368045  
H593     H      0.768490000000     0.135040000000     0.030710000000     0.0361809  
H594     H      0.612410000000     0.010450000000     0.038460000000     0.0344689  
H595     H      0.624900000000     0.083980000000     0.036340000000     0.034362   
H596     H      0.568970000000     0.994330000000     0.015260000000     0.0408667  
H597     H      0.698330000000     0.078170000000     0.989500000000     0.0442346  
H598     H      0.771620000000     0.149520000000     0.073500000000     0.0414062  
H599     H      0.647770000000     0.058720000000     0.100920000000     0.0440979  
H600     H      0.731870000000     0.115670000000     0.094190000000     0.0375227  
H601     H      0.581690000000     0.068660000000     0.013550000000     0.0411978  
H602     H      0.768420000000     0.088400000000     0.035840000000     0.0174049  
H603     H      0.611230000000     0.023880000000     0.995940000000     0.037832   
H604     H      0.618440000000     0.066910000000     0.994710000000     0.0379588  
H605     H      0.693160000000     0.077670000000     0.105330000000     0.0400145  
H606     H      0.730180000000     0.075360000000     0.096610000000     0.0459814  
H607     H      0.574270000000     0.008230000000     0.059100000000     0.0373277  
H608     H      0.787830000000     0.076510000000     0.077030000000     0.0947326  
H609     H      0.774490000000     0.082520000000     0.114340000000     0.0937701  
H610     H      0.155040000000     0.830650000000     0.502110000000     0.040321   
H611     H      0.198700000000     0.835480000000     0.614700000000     0.0338724  
H612     H      0.172350000000     0.886130000000     0.624550000000     0.0448754  
H613     H      0.224460000000     0.884060000000     0.408710000000     0.0363146  
H614     H      0.173960000000     0.821720000000     0.667690000000     0.0387762  
H615     H      0.160480000000     0.876550000000     0.458330000000     0.0344888  
H616     H      0.219360000000     0.860310000000     0.463350000000     0.0335066  
H617     H      0.156170000000     0.868280000000     0.391870000000     0.0409106  
H618     H      0.151310000000     0.826550000000     0.567710000000     0.0439002  
H619     H      0.205820000000     0.837770000000     0.681850000000     0.0363727  
H620     H      0.221960000000     0.901690000000     0.513610000000     0.0435652  
H621     H      0.218540000000     0.866330000000     0.631840000000     0.035553   
H622     H      0.216570000000     0.852880000000     0.397290000000     0.0393465  
H623     H      0.156940000000     0.864490000000     0.678490000000     0.017511   
H624     H      0.153910000000     0.845680000000     0.446680000000     0.0376933  
H625     H      0.188780000000     0.836140000000     0.449770000000     0.0374696  
H626     H      0.219320000000     0.896710000000     0.579070000000     0.0395289  
H627     H      0.204170000000     0.895380000000     0.634770000000     0.0453398  
H628     H      0.185790000000     0.893930000000     0.404800000000     0.0357137  
H629     H      0.176390000000     0.897260000000     0.715730000000     0.0930464  
H630     H      0.206120000000     0.902270000000     0.706780000000     0.0921166  
H631     H      0.186230000000     0.838980000000     0.094400000000     0.0409203  
H632     H      0.182550000000     0.796050000000     0.964250000000     0.0345801  
H633     H      0.147500000000     0.838840000000     0.979040000000     0.0451132  
H634     H      0.154140000000     0.768000000000     0.180500000000     0.0356195  
H635     H      0.199790000000     0.825650000000     0.916900000000     0.0368168  
H636     H      0.121530000000     0.803180000000     0.125500000000     0.0342434  
H637     H      0.181920000000     0.789140000000     0.130240000000     0.0344673  
H638     H      0.121440000000     0.806420000000     0.192300000000     0.0407125  
H639     H      0.193560000000     0.848770000000     0.030110000000     0.0443144  
H640     H      0.176970000000     0.797160000000     0.896890000000     0.0400728  
H641     H      0.125590000000     0.766020000000     0.068620000000     0.0438294  
H642     H      0.151030000000     0.784650000000     0.949040000000     0.0356187  
H643     H      0.183100000000     0.792720000000     0.197410000000     0.0409024  
H644     H      0.172810000000     0.857820000000     0.927940000000     0.0190062  
H645     H      0.151050000000     0.827290000000     0.142670000000     0.0390169  
H646     H      0.187200000000     0.818890000000     0.145700000000     0.0386651  
H647     H      0.131910000000     0.776360000000     0.004410000000     0.0399503  
H648     H      0.131040000000     0.808630000000     0.958630000000     0.0466304  
H649     H      0.115600000000     0.776530000000     0.177120000000     0.0361379  
H650     H      0.141440000000     0.855050000000     0.893210000000     0.0936394  
H651     H      0.125120000000     0.822830000000     0.892120000000     0.09121    
H652     H      0.353570000000     0.943240000000     0.932180000000     0.0402806  
H653     H      0.287720000000     0.945420000000     0.843920000000     0.0343175  
H654     H      0.302100000000     0.886450000000     0.828600000000     0.0447479  
H655     H      0.441460000000     0.009310000000     0.889600000000     0.0380032  
H656     H      0.247090000000     0.911810000000     0.849190000000     0.039274   
H657     H      0.392160000000     0.930350000000     0.890520000000     0.0343123  
H658     H      0.399790000000     0.001730000000     0.899570000000     0.0339846  
H659     H      0.431090000000     0.944550000000     0.927070000000     0.0406813  
H660     H      0.310310000000     0.921030000000     0.910560000000     0.0446068  
H661     H      0.248730000000     0.921470000000     0.803600000000     0.0353516  
H662     H      0.379330000000     0.966070000000     0.823530000000     0.0439496  
H663     H      0.292420000000     0.936880000000     0.799600000000     0.0344123  
H664     H      0.439170000000     0.016190000000     0.935880000000     0.0384583  
H665     H      0.259400000000     0.862480000000     0.831330000000     0.0198859  
H666     H      0.391430000000     0.942470000000     0.934310000000     0.0366079  
H667     H      0.395710000000     0.983540000000     0.939470000000     0.0364722  
H668     H      0.336100000000     0.944920000000     0.802150000000     0.0395624  
H669     H      0.302210000000     0.904950000000     0.791490000000     0.045735   
H670     H      0.435950000000     0.958620000000     0.883520000000     0.0364292  
H671     H      0.251150000000     0.846300000000     0.775380000000     0.0932821  
H672     H      0.260550000000     0.874340000000     0.754020000000     0.0891553  
H673     H      0.848420000000     0.658560000000     0.863790000000     0.0402161  
H674     H      0.831290000000     0.697990000000     0.971560000000     0.0338891  
H675     H      0.795900000000     0.620440000000     0.985330000000     0.0450214  
H676     H      0.799640000000     0.671430000000     0.759050000000     0.037005   
H677     H      0.846850000000     0.691750000000     0.025930000000     0.041828   
H678     H      0.803980000000     0.615910000000     0.819950000000     0.0342169  
H679     H      0.821760000000     0.691100000000     0.813980000000     0.0336106  
H680     H      0.814820000000     0.616870000000     0.754560000000     0.0399216  
H681     H      0.848950000000     0.660170000000     0.929780000000     0.0448675  
H682     H      0.823760000000     0.699180000000     0.040080000000     0.030078   
H683     H      0.776210000000     0.653130000000     0.863160000000     0.0436277  
H684     H      0.799340000000     0.682140000000     0.986250000000     0.0334896  
H685     H      0.831830000000     0.692340000000     0.748520000000     0.0383215  
H686     H      0.788970000000     0.622050000000     0.043950000000     0.0234555  
H687     H      0.835350000000     0.639510000000     0.808700000000     0.0368496  
H688     H      0.845640000000     0.683230000000     0.805320000000     0.037069   
H689     H      0.777570000000     0.656490000000     0.929030000000     0.0399256  
H690     H      0.775030000000     0.631790000000     0.977440000000     0.0451464  
H691     H      0.788120000000     0.620210000000     0.762680000000     0.0350318  
H692     H      0.766040000000     0.639140000000     0.068000000000     0.090318   
H693     H      0.770710000000     0.657510000000     0.031260000000     0.0840006  
H694     H      0.903310000000     0.656050000000     0.360880000000     0.044363   
H695     H      0.878750000000     0.699040000000     0.471300000000     0.03435    
H696     H      0.854070000000     0.622160000000     0.470130000000     0.0456951  
H697     H      0.862420000000     0.623740000000     0.258020000000     0.0359407  
H698     H      0.890600000000     0.690360000000     0.528880000000     0.0357105  
H699     H      0.895010000000     0.693810000000     0.308770000000     0.0342009  
H700     H      0.840980000000     0.617260000000     0.314950000000     0.0343999  
H701     H      0.886240000000     0.694250000000     0.243250000000     0.0401314  
H702     H      0.903550000000     0.659360000000     0.426940000000     0.0443885  
H703     H      0.865300000000     0.696080000000     0.535410000000     0.0406286  
H704     H      0.835760000000     0.659940000000     0.356450000000     0.0403645  
H705     H      0.846260000000     0.676910000000     0.478880000000     0.0365768  
H706     H      0.831120000000     0.616920000000     0.249460000000     0.0410497  
H707     H      0.872630000000     0.635920000000     0.528300000000     0.0177303  
H708     H      0.862780000000     0.684170000000     0.299820000000     0.0383454  
H709     H      0.830920000000     0.639070000000     0.303280000000     0.0378286  
H710     H      0.835080000000     0.661600000000     0.421960000000     0.0397198  
H711     H      0.832080000000     0.632710000000     0.476890000000     0.0468952  
H712     H      0.898430000000     0.674170000000     0.254230000000     0.0368478  
H713     H      0.839450000000     0.605150000000     0.558130000000     0.0937298  
H714     H      0.818360000000     0.614060000000     0.543140000000     0.0924083  
H715     H      0.637330000000     0.562940000000     0.622020000000     0.044457   
H716     H      0.723440000000     0.634200000000     0.588060000000     0.0341648  
H717     H      0.717950000000     0.563910000000     0.597430000000     0.0452077  
H718     H      0.575140000000     0.558380000000     0.571310000000     0.0386623  
H719     H      0.764630000000     0.642250000000     0.575280000000     0.0369511  
H720     H      0.612710000000     0.516960000000     0.548340000000     0.0343429  
H721     H      0.617560000000     0.587160000000     0.556120000000     0.0340838  
H722     H      0.570680000000     0.499910000000     0.517640000000     0.0401318  
H723     H      0.681920000000     0.583220000000     0.635840000000     0.0398232  
H724     H      0.764810000000     0.653820000000     0.619440000000     0.039476   
H725     H      0.653870000000     0.568300000000     0.508570000000     0.0404436  
H726     H      0.722890000000     0.621360000000     0.631800000000     0.0362236  
H727     H      0.575330000000     0.569510000000     0.526720000000     0.0395665  
H728     H      0.760920000000     0.589630000000     0.586150000000     0.0156865  
H729     H      0.612590000000     0.533230000000     0.508220000000     0.0362961  
H730     H      0.615190000000     0.573210000000     0.512710000000     0.0366909  
H731     H      0.698580000000     0.587990000000     0.522390000000     0.043889   
H732     H      0.718380000000     0.580750000000     0.636970000000     0.046078   
H733     H      0.571360000000     0.506750000000     0.564570000000     0.0375595  
H734     H      0.773570000000     0.577130000000     0.634960000000     0.0925765  
H735     H      0.761870000000     0.589710000000     0.666020000000     0.0929787  
H736     H      0.046380000000     0.762300000000     0.691540000000     0.0407656  
H737     H      0.956840000000     0.678770000000     0.692300000000     0.0343736  
H738     H      0.959290000000     0.747860000000     0.697940000000     0.0454379  
H739     H      0.089800000000     0.759090000000     0.804880000000     0.0360284  
H740     H      0.929850000000     0.677520000000     0.644830000000     0.036502   
H741     H      0.050380000000     0.795020000000     0.770190000000     0.0341182  
H742     H      0.064790000000     0.735870000000     0.753790000000     0.0341872  
H743     H      0.095240000000     0.823740000000     0.784430000000     0.0398821  
H744     H      0.005700000000     0.740880000000     0.661330000000     0.0442276  
H745     H      0.911050000000     0.657340000000     0.680240000000     0.0405837  
H746     H      0.010350000000     0.734950000000     0.794050000000     0.043834   
H747     H      0.939120000000     0.683890000000     0.726290000000     0.0362905  
H748     H      0.110080000000     0.764240000000     0.767380000000     0.0405898  
H749     H      0.930690000000     0.726880000000     0.650200000000     0.0173115  
H750     H      0.071090000000     0.797280000000     0.734400000000     0.0380266  
H751     H      0.079510000000     0.762680000000     0.724750000000     0.0375419  
H752     H      0.969690000000     0.713950000000     0.764040000000     0.039738   
H753     H      0.941390000000     0.723920000000     0.730260000000     0.0461751  
H754     H      0.079780000000     0.798830000000     0.816160000000     0.0350811  
H755     H      0.900830000000     0.734060000000     0.672940000000     0.093629   
H756     H      0.896650000000     0.717060000000     0.712330000000     0.0929577  
N1       N      0.699250000000     0.902870000000     0.772070000000    -0.184381   
N2       N      0.724280000000     0.952500000000     0.746940000000    -0.110398   
N3       N      0.773890000000     0.042220000000     0.665730000000    -0.113732   
N4       N      0.804340000000     0.091410000000     0.641590000000    -0.172621   
N5       N      0.735130000000     0.898960000000     0.752890000000    -0.19794    
N6       N      0.984940000000     0.432800000000     0.516690000000    -0.184716   
N7       N      0.967050000000     0.383650000000     0.542510000000    -0.110712   
N8       N      0.918810000000     0.278540000000     0.554480000000    -0.113569   
N9       N      0.889230000000     0.228810000000     0.576920000000    -0.172213   
N10      N      0.941850000000     0.420410000000     0.498640000000    -0.19778    
N11      N      0.135250000000     0.765590000000     0.342680000000    -0.184337   
N12      N      0.108170000000     0.715500000000     0.364280000000    -0.110079   
N13      N      0.061210000000     0.621590000000     0.434990000000    -0.11353    
N14      N      0.040870000000     0.571440000000     0.454970000000    -0.17236    
N15      N      0.172790000000     0.768750000000     0.369990000000    -0.197999   
N16      N      0.521960000000     0.573960000000     0.964300000000    -0.1846     
N17      N      0.546870000000     0.621140000000     0.930060000000    -0.11074    
N18      N      0.603220000000     0.724360000000     0.896370000000    -0.113658   
N19      N      0.628800000000     0.771460000000     0.863410000000    -0.17256    
N20      N      0.488370000000     0.582270000000     0.981550000000    -0.197837   
N21      N      0.297260000000     0.094270000000     0.154530000000    -0.1843     
N22      N      0.274530000000     0.045450000000     0.180630000000    -0.109803   
N23      N      0.227530000000     0.942010000000     0.212250000000    -0.113669   
N24      N      0.203320000000     0.894790000000     0.245010000000    -0.17243    
N25      N      0.260050000000     0.083340000000     0.118600000000    -0.198003   
N26      N      0.362320000000     0.239020000000     0.131670000000    -0.184907   
N27      N      0.386500000000     0.288330000000     0.106670000000    -0.110176   
N28      N      0.436080000000     0.392670000000     0.080460000000    -0.113585   
N29      N      0.458700000000     0.440710000000     0.050220000000    -0.172058   
N30      N      0.326810000000     0.243430000000     0.150330000000    -0.197916   
N31      N      0.666720000000     0.808580000000     0.419030000000    -0.183943   
N32      N      0.661810000000     0.807550000000     0.493920000000    -0.109538   
N33      N      0.655370000000     0.798510000000     0.647180000000    -0.113748   
N34      N      0.656400000000     0.807330000000     0.721800000000    -0.172864   
N35      N      0.632620000000     0.765640000000     0.416120000000    -0.197967   
N36      N      0.671350000000     0.865910000000     0.913830000000    -0.185139   
N37      N      0.676200000000     0.871280000000     0.989870000000    -0.111027   
N38      N      0.676790000000     0.847740000000     0.138410000000    -0.113179   
N39      N      0.673000000000     0.840960000000     0.213490000000    -0.171903   
N40      N      0.625740000000     0.848700000000     0.920440000000    -0.198851   
N41      N      0.798370000000     0.687910000000     0.182970000000    -0.184324   
N42      N      0.771060000000     0.706810000000     0.219370000000    -0.110464   
N43      N      0.718210000000     0.756170000000     0.259690000000    -0.113198   
N44      N      0.698090000000     0.783630000000     0.290380000000    -0.17207    
N45      N      0.827440000000     0.730240000000     0.161600000000    -0.197654   
N46      N      0.545800000000     0.969250000000     0.443060000000    -0.184438   
N47      N      0.573970000000     0.945900000000     0.426100000000    -0.110707   
N48      N      0.621030000000     0.898480000000     0.356080000000    -0.113604   
N49      N      0.641550000000     0.868380000000     0.337600000000    -0.172102   
N50      N      0.507830000000     0.931090000000     0.424250000000    -0.197942   
N51      N      0.015660000000     0.523860000000     0.585030000000    -0.18543    
N52      N      0.020380000000     0.535440000000     0.659560000000    -0.110946   
N53      N      0.022680000000     0.526120000000     0.811910000000    -0.112676   
N54      N      0.018560000000     0.521760000000     0.886390000000    -0.172474   
N55      N      0.969940000000     0.499300000000     0.592840000000    -0.198438   
N56      N      0.020640000000     0.480780000000     0.085190000000    -0.184698   
N57      N      0.016730000000     0.479330000000     0.158500000000    -0.108259   
N58      N      0.010220000000     0.471090000000     0.311420000000    -0.11375    
N59      N      0.010310000000     0.479930000000     0.385750000000    -0.173242   
N60      N      0.002140000000     0.436360000000     0.089710000000    -0.197798   
N61      N      0.985430000000     0.538390000000     0.018900000000    -0.184029   
N62      N      0.959760000000     0.561420000000     0.048330000000    -0.110493   
N63      N      0.901610000000     0.607880000000     0.073320000000    -0.113531   
N64      N      0.874460000000     0.629110000000     0.102410000000    -0.172049   
N65      N      0.020310000000     0.579730000000     0.003560000000    -0.198006   
N66      N      0.337540000000     0.159410000000     0.039980000000    -0.184919   
N67      N      0.336820000000     0.145430000000     0.967430000000    -0.109827   
N68      N      0.346420000000     0.137180000000     0.815100000000    -0.113323   
N69      N      0.343530000000     0.140900000000     0.739620000000    -0.172867   
N70      N      0.322380000000     0.187210000000     0.020970000000    -0.198876   
N71      N      0.321320000000     0.172840000000     0.246870000000    -0.184461   
N72      N      0.311900000000     0.165630000000     0.321240000000    -0.109916   
N73      N      0.300660000000     0.168490000000     0.473560000000    -0.113721   
N74      N      0.306160000000     0.165640000000     0.548570000000    -0.172559   
N75      N      0.364940000000     0.202950000000     0.259710000000    -0.19848    
N76      N      0.473140000000     0.037840000000     0.498660000000    -0.183983   
N77      N      0.447770000000     0.060590000000     0.529460000000    -0.110212   
N78      N      0.389430000000     0.105690000000     0.562900000000    -0.113624   
N79      N      0.362360000000     0.125700000000     0.596030000000    -0.172081   
N80      N      0.502820000000     0.077800000000     0.471170000000    -0.197739   
N81      N      0.052690000000     0.466580000000     0.953190000000    -0.184389   
N82      N      0.075090000000     0.443850000000     0.914450000000    -0.110004   
N83      N      0.119650000000     0.388950000000     0.861550000000    -0.112332   
N84      N      0.139610000000     0.361780000000     0.832200000000    -0.171362   
N85      N      0.092620000000     0.493180000000     0.983230000000    -0.197831   
N86      N      0.286570000000     0.179620000000     0.692190000000    -0.184115   
N87      N      0.260070000000     0.201700000000     0.722100000000    -0.110534   
N88      N      0.219170000000     0.246710000000     0.812300000000    -0.113971   
N89      N      0.198430000000     0.275630000000     0.835770000000    -0.172597   
N90      N      0.253500000000     0.139030000000     0.714270000000    -0.197883   
N91      N      0.480770000000     0.487240000000     0.606670000000    -0.184432   
N92      N      0.482740000000     0.484230000000     0.681780000000    -0.109803   
N93      N      0.473140000000     0.470230000000     0.834160000000    -0.113726   
N94      N      0.475630000000     0.477880000000     0.909170000000    -0.17282    
N95      N      0.455040000000     0.506610000000     0.613050000000    -0.19865    
N96      N      0.503730000000     0.535660000000     0.102800000000    -0.185521   
N97      N      0.509020000000     0.528840000000     0.174840000000    -0.109419   
N98      N      0.520610000000     0.524870000000     0.327110000000    -0.112787   
N99      N      0.513870000000     0.516240000000     0.402050000000    -0.172678   
N100     N      0.544720000000     0.572010000000     0.100220000000    -0.198921   
N101     N      0.869670000000     0.178780000000     0.013030000000    -0.184158   
N102     N      0.867640000000     0.180420000000     0.939360000000    -0.108353   
N103     N      0.871510000000     0.190060000000     0.786310000000    -0.113695   
N104     N      0.864380000000     0.181970000000     0.711440000000    -0.172353   
N105     N      0.894340000000     0.223340000000     0.008760000000    -0.197875   
N106     N      0.830480000000     0.139330000000     0.510400000000    -0.184205   
N107     N      0.828370000000     0.138070000000     0.435210000000    -0.109672   
N108     N      0.813290000000     0.125820000000     0.283310000000    -0.113923   
N109     N      0.819340000000     0.132450000000     0.208120000000    -0.173229   
N110     N      0.843560000000     0.108250000000     0.509820000000    -0.198576   
N111     N      0.144980000000     0.305440000000     0.426690000000    -0.185899   
N112     N      0.156590000000     0.311650000000     0.498860000000    -0.109664   
N113     N      0.167480000000     0.308550000000     0.651130000000    -0.113068   
N114     N      0.168150000000     0.312950000000     0.726580000000    -0.172763   
N115     N      0.104730000000     0.301550000000     0.437640000000    -0.199025   
N116     N      0.183840000000     0.359670000000     0.231990000000    -0.184075   
N117     N      0.176410000000     0.354260000000     0.160530000000    -0.107913   
N118     N      0.167540000000     0.337530000000     0.008820000000    -0.112727   
N119     N      0.169100000000     0.325440000000     0.936430000000    -0.172336   
N120     N      0.194170000000     0.402120000000     0.222650000000    -0.197739   
N121     N      0.912720000000     0.193410000000     0.149490000000    -0.18483    
N122     N      0.962330000000     0.218500000000     0.176510000000    -0.110983   
N123     N      0.048410000000     0.257660000000     0.266380000000    -0.113804   
N124     N      0.096150000000     0.287260000000     0.296600000000    -0.172712   
N125     N      0.904960000000     0.223670000000     0.181520000000    -0.198156   
N126     N      0.232320000000     0.377610000000     0.364510000000    -0.184555   
N127     N      0.282570000000     0.408200000000     0.386900000000    -0.110861   
N128     N      0.374840000000     0.450030000000     0.462760000000    -0.113744   
N129     N      0.425420000000     0.471390000000     0.482360000000    -0.172868   
N130     N      0.221530000000     0.406030000000     0.395650000000    -0.198181   
N131     N      0.525980000000     0.002020000000     0.573790000000    -0.183982   
N132     N      0.528440000000     0.006590000000     0.648880000000    -0.109628   
N133     N      0.541720000000     0.012160000000     0.801560000000    -0.113753   
N134     N      0.534050000000     0.011490000000     0.876590000000    -0.172312   
N135     N      0.508970000000     0.957350000000     0.579740000000    -0.19852    
N136     N      0.478000000000     0.001810000000     0.069410000000    -0.183404   
N137     N      0.480740000000     0.002580000000     0.142840000000    -0.108183   
N138     N      0.482870000000     0.006420000000     0.296480000000    -0.113554   
N139     N      0.492670000000     0.005880000000     0.370630000000    -0.172683   
N140     N      0.455700000000     0.024010000000     0.077400000000    -0.197787   
N141     N      0.776320000000     0.117240000000     0.073140000000    -0.184462   
N142     N      0.726050000000     0.092100000000     0.048860000000    -0.110878   
N143     N      0.620400000000     0.047880000000     0.041570000000    -0.113715   
N144     N      0.571030000000     0.029960000000     0.017950000000    -0.172465   
N145     N      0.772210000000     0.076570000000     0.087550000000    -0.198187   
N146     N      0.185260000000     0.856370000000     0.692540000000    -0.184516   
N147     N      0.181760000000     0.857960000000     0.617050000000    -0.109986   
N148     N      0.191280000000     0.870540000000     0.464360000000    -0.113836   
N149     N      0.187600000000     0.862180000000     0.389410000000    -0.172868   
N150     N      0.188560000000     0.897290000000     0.696220000000    -0.197759   
N151     N      0.167410000000     0.825960000000     0.899530000000    -0.184265   
N152     N      0.168280000000     0.820220000000     0.974830000000    -0.110214   
N153     N      0.150850000000     0.794690000000     0.123880000000    -0.113868   
N154     N      0.151510000000     0.798620000000     0.199530000000    -0.172744   
N155     N      0.136080000000     0.838680000000     0.907580000000    -0.198216   
N156     N      0.247990000000     0.887060000000     0.810910000000    -0.184632   
N157     N      0.294630000000     0.915200000000     0.842700000000    -0.109307   
N158     N      0.395400000000     0.966090000000     0.889790000000    -0.113528   
N159     N      0.440930000000     0.983040000000     0.926300000000    -0.172649   
N160     N      0.264080000000     0.865300000000     0.775040000000    -0.198123   
N161     N      0.813650000000     0.661330000000     0.046590000000    -0.184068   
N162     N      0.814060000000     0.658560000000     0.973240000000    -0.108227   
N163     N      0.810060000000     0.652780000000     0.819800000000    -0.11359    
N164     N      0.819770000000     0.653360000000     0.745520000000    -0.172938   
N165     N      0.768990000000     0.640780000000     0.040170000000    -0.197741   
N166     N      0.856730000000     0.658110000000     0.542300000000    -0.184615   
N167     N      0.869640000000     0.661270000000     0.468410000000    -0.110624   
N168     N      0.869860000000     0.655100000000     0.315090000000    -0.113717   
N169     N      0.860120000000     0.654910000000     0.240820000000    -0.172555   
N170     N      0.834030000000     0.612520000000     0.536980000000    -0.198164   
N171     N      0.768490000000     0.621260000000     0.617080000000    -0.184915   
N172     N      0.720040000000     0.598450000000     0.586990000000    -0.110508   
N173     N      0.615880000000     0.552160000000     0.557780000000    -0.113331   
N174     N      0.567220000000     0.531730000000     0.530550000000    -0.172281   
N175     N      0.759200000000     0.580690000000     0.641270000000    -0.197742   
N176     N      0.909700000000     0.691130000000     0.673610000000    -0.184525   
N177     N      0.961060000000     0.714850000000     0.691670000000    -0.110629   
N178     N      0.054650000000     0.763300000000     0.764240000000    -0.113814   
N179     N      0.105100000000     0.795000000000     0.782400000000    -0.172995   
N180     N      0.909230000000     0.728820000000     0.692880000000    -0.198016   
Ni1      Ni     0.838520000000     0.636860000000     0.647670000000     0.99485    
Ni2      Ni     0.840040000000     0.675590000000     0.641100000000     0.996465   
Ni3      Ni     0.180710000000     0.824750000000     0.791510000000     0.998616   
Ni4      Ni     0.172310000000     0.857690000000     0.800730000000     0.992709   
Ni5      Ni     0.501480000000     0.985650000000     0.975140000000     0.996801   
Ni6      Ni     0.510010000000     0.027340000000     0.970530000000     0.997741   
Ni7      Ni     0.170180000000     0.317530000000     0.322760000000     1.00267    
Ni8      Ni     0.158530000000     0.347780000000     0.336020000000     0.996453   
Ni9      Ni     0.847510000000     0.138120000000     0.106430000000     0.991544   
Ni10     Ni     0.841870000000     0.172870000000     0.114810000000     1.00092    
Ni11     Ni     0.495480000000     0.482220000000     0.500520000000     1.00348    
Ni12     Ni     0.497960000000     0.521390000000     0.507790000000     0.993098   
Ni13     Ni     0.189310000000     0.336350000000     0.830340000000     0.999561   
Ni14     Ni     0.148580000000     0.300990000000     0.832950000000     0.998685   
Ni15     Ni     0.342570000000     0.172870000000     0.643750000000     1.00174    
Ni16     Ni     0.306650000000     0.132640000000     0.644190000000     0.989206   
Ni17     Ni     0.038790000000     0.520460000000     0.991040000000     0.991916   
Ni18     Ni     0.999340000000     0.484250000000     0.982090000000     1.00372    
Ni19     Ni     0.690130000000     0.842600000000     0.320510000000     0.995256   
Ni20     Ni     0.649200000000     0.808360000000     0.312410000000     0.994865   
Ni21     Ni     0.854250000000     0.678540000000     0.140120000000     0.994719   
Ni22     Ni     0.819190000000     0.638160000000     0.147730000000     0.996948   
Ni23     Ni     0.528170000000     0.023030000000     0.468490000000     0.994594   
Ni24     Ni     0.491140000000     0.984060000000     0.475290000000     0.991532   
Ni25     Ni     0.310060000000     0.164980000000     0.137740000000     0.993353   
Ni26     Ni     0.349420000000     0.168310000000     0.148870000000     0.994391   
Ni27     Ni     0.470410000000     0.506140000000     0.006120000000     0.998168   
Ni28     Ni     0.509480000000     0.507540000000     0.005860000000     0.995022   
Ni29     Ni     0.150770000000     0.831360000000     0.294870000000     0.997573   
Ni30     Ni     0.188240000000     0.829560000000     0.293970000000     0.99632    
Ni31     Ni     0.992500000000     0.498990000000     0.482220000000     0.995987   
Ni32     Ni     0.033480000000     0.505270000000     0.488120000000     1.00004    
Ni33     Ni     0.829990000000     0.163840000000     0.612730000000     1.00021    
Ni34     Ni     0.864530000000     0.157100000000     0.609390000000     0.993072   
Ni35     Ni     0.644680000000     0.836540000000     0.813730000000     0.99452    
Ni36     Ni     0.683260000000     0.837450000000     0.821170000000     0.996268   
O1       O      0.847690000000     0.639360000000     0.597980000000    -0.455298   
O2       O      0.829050000000     0.636690000000     0.696840000000    -0.452215   
O3       O      0.804250000000     0.621170000000     0.633790000000    -0.458093   
O4       O      0.873030000000     0.655170000000     0.661130000000    -0.452247   
O5       O      0.874370000000     0.691270000000     0.654660000000    -0.456589   
O6       O      0.805450000000     0.657250000000     0.628130000000    -0.452737   
O7       O      0.831030000000     0.673200000000     0.690880000000    -0.452869   
O8       O      0.849120000000     0.675530000000     0.591760000000    -0.452513   
O9       O      0.176340000000     0.818600000000     0.842320000000    -0.451972   
O10      O      0.184790000000     0.833280000000     0.741330000000    -0.452708   
O11      O      0.215090000000     0.848160000000     0.799330000000    -0.457429   
O12      O      0.145640000000     0.803350000000     0.784370000000    -0.452351   
O13      O      0.137800000000     0.834130000000     0.793250000000    -0.453276   
O14      O      0.207520000000     0.879150000000     0.807640000000    -0.451746   
O15      O      0.176460000000     0.863700000000     0.749960000000    -0.455139   
O16      O      0.168400000000     0.849320000000     0.850850000000    -0.454542   
O17      O      0.515760000000     0.989550000000     0.928160000000    -0.450642   
O18      O      0.487600000000     0.984450000000     0.021850000000    -0.449566   
O19      O      0.469900000000     0.975610000000     0.953220000000    -0.452687   
O20      O      0.533810000000     0.998480000000     0.996490000000    -0.45097    
O21      O      0.541710000000     0.037390000000     0.992160000000    -0.452089   
O22      O      0.477590000000     0.014490000000     0.949330000000    -0.451055   
O23      O      0.495810000000     0.023490000000     0.017470000000    -0.453572   
O24      O      0.523880000000     0.028540000000     0.923890000000    -0.450387   
O25      O      0.160130000000     0.305130000000     0.370570000000    -0.455398   
O26      O      0.179930000000     0.332170000000     0.276040000000    -0.45406    
O27      O      0.202690000000     0.340410000000     0.340440000000    -0.454839   
O28      O      0.136640000000     0.296530000000     0.305960000000    -0.450242   
O29      O      0.125800000000     0.324670000000     0.319520000000    -0.454645   
O30      O      0.192210000000     0.368980000000     0.351910000000    -0.455392   
O31      O      0.167940000000     0.359720000000     0.287740000000    -0.454092   
O32      O      0.149460000000     0.333540000000     0.383180000000    -0.455501   
O33      O      0.859350000000     0.150440000000     0.058830000000    -0.44983    
O34      O      0.835510000000     0.128240000000     0.154680000000    -0.451086   
O35      O      0.813930000000     0.120480000000     0.088720000000    -0.454113   
O36      O      0.880580000000     0.157980000000     0.124760000000    -0.453483   
O37      O      0.875170000000     0.190220000000     0.133620000000    -0.456365   
O38      O      0.809050000000     0.153220000000     0.095520000000    -0.454035   
O39      O      0.829290000000     0.160220000000     0.161810000000    -0.454426   
O40      O      0.854540000000     0.183200000000     0.067180000000    -0.455737   
O41      O      0.488130000000     0.476680000000     0.550750000000    -0.455123   
O42      O      0.503000000000     0.490280000000     0.450740000000    -0.45344    
O43      O      0.530350000000     0.498380000000     0.511700000000    -0.451443   
O44      O      0.460770000000     0.468670000000     0.490110000000    -0.452477   
O45      O      0.463330000000     0.505470000000     0.495410000000    -0.452648   
O46      O      0.532340000000     0.534740000000     0.519920000000    -0.451669   
O47      O      0.506900000000     0.527560000000     0.457820000000    -0.449506   
O48      O      0.488980000000     0.512600000000     0.557310000000    -0.452926   
O49      O      0.187390000000     0.332770000000     0.779010000000    -0.451946   
O50      O      0.188690000000     0.337400000000     0.881770000000    -0.452406   
O51      O      0.202240000000     0.314190000000     0.832910000000    -0.452767   
O52      O      0.173620000000     0.356300000000     0.828340000000    -0.449742   
O53      O      0.135620000000     0.323130000000     0.830280000000    -0.451761   
O54      O      0.164300000000     0.281070000000     0.835510000000    -0.450047   
O55      O      0.150380000000     0.304750000000     0.884260000000    -0.451317   
O56      O      0.149240000000     0.299900000000     0.781530000000    -0.452635   
O57      O      0.332330000000     0.177660000000     0.597310000000    -0.45356    
O58      O      0.350500000000     0.165600000000     0.690260000000    -0.454113   
O59      O      0.360120000000     0.158260000000     0.621360000000    -0.450076   
O60      O      0.322600000000     0.184730000000     0.666200000000    -0.45174    
O61      O      0.289280000000     0.147090000000     0.667290000000    -0.45435    
O62      O      0.326320000000     0.120790000000     0.621100000000    -0.450992   
O63      O      0.317470000000     0.127620000000     0.690410000000    -0.449763   
O64      O      0.298290000000     0.140390000000     0.597930000000    -0.448233   
O65      O      0.036990000000     0.529290000000     0.942130000000    -0.452067   
O66      O      0.038150000000     0.509030000000     0.039230000000    -0.452426   
O67      O      0.053800000000     0.501770000000     0.974860000000    -0.455124   
O68      O      0.021120000000     0.536840000000     0.006500000000    -0.453969   
O69      O      0.984360000000     0.502950000000     0.998560000000    -0.453184   
O70      O      0.017030000000     0.467950000000     0.966200000000    -0.452778   
O71      O      0.001280000000     0.475190000000     0.030610000000    -0.45716    
O72      O      0.999880000000     0.495610000000     0.934120000000    -0.454244   
O73      O      0.690110000000     0.849640000000     0.270210000000    -0.449597   
O74      O      0.687550000000     0.833040000000     0.370210000000    -0.450304   
O75      O      0.702520000000     0.820800000000     0.308790000000    -0.451751   
O76      O      0.675060000000     0.862320000000     0.331350000000    -0.450016   
O77      O      0.636850000000     0.830370000000     0.323250000000    -0.450689   
O78      O      0.664320000000     0.788550000000     0.301940000000    -0.449747   
O79      O      0.649100000000     0.801490000000     0.362640000000    -0.455295   
O80      O      0.651890000000     0.817550000000     0.262680000000    -0.450927   
O81      O      0.864380000000     0.675640000000     0.187800000000    -0.451135   
O82      O      0.841710000000     0.678870000000     0.092940000000    -0.451674   
O83      O      0.834510000000     0.691450000000     0.159800000000    -0.455921   
O84      O      0.871750000000     0.662920000000     0.120920000000    -0.4501     
O85      O      0.838910000000     0.625210000000     0.127900000000    -0.450673   
O86      O      0.801670000000     0.653880000000     0.166790000000    -0.451309   
O87      O      0.809050000000     0.641050000000     0.100140000000    -0.454314   
O88      O      0.831780000000     0.637780000000     0.194760000000    -0.451119   
O89      O      0.535040000000     0.020830000000     0.518250000000    -0.452011   
O90      O      0.518710000000     0.022880000000     0.419260000000    -0.451871   
O91      O      0.509260000000     0.038400000000     0.482110000000    -0.454804   
O92      O      0.544680000000     0.005010000000     0.455230000000    -0.451183   
O93      O      0.510070000000     0.968700000000     0.461760000000    -0.456234   
O94      O      0.474580000000     0.002070000000     0.488240000000    -0.450852   
O95      O      0.484300000000     0.986220000000     0.425450000000    -0.451453   
O96      O      0.500500000000     0.984330000000     0.524620000000    -0.453162   
O97      O      0.306990000000     0.167440000000     0.188660000000    -0.4537     
O98      O      0.315720000000     0.162780000000     0.087510000000    -0.455751   
O99      O      0.295610000000     0.129760000000     0.142550000000    -0.454589   
O100     O      0.327120000000     0.200400000000     0.133720000000    -0.456187   
O101     O      0.364070000000     0.203420000000     0.141840000000    -0.453176   
O102     O      0.332210000000     0.133040000000     0.155030000000    -0.452285   
O103     O      0.351540000000     0.163800000000     0.098210000000    -0.452004   
O104     O      0.344590000000     0.172440000000     0.198860000000    -0.453488   
O105     O      0.478160000000     0.519600000000     0.053710000000    -0.455995   
O106     O      0.465100000000     0.492690000000     0.958580000000    -0.45354    
O107     O      0.456190000000     0.473410000000     0.026080000000    -0.450584   
O108     O      0.487300000000     0.539010000000     0.986230000000    -0.454717   
O109     O      0.523440000000     0.539730000000     0.984390000000    -0.454021   
O110     O      0.492970000000     0.475260000000     0.027590000000    -0.450239   
O111     O      0.500890000000     0.492490000000     0.959050000000    -0.449929   
O112     O      0.515470000000     0.522580000000     0.052600000000    -0.452536   
O113     O      0.161110000000     0.847410000000     0.340840000000    -0.450604   
O114     O      0.143040000000     0.815420000000     0.248780000000    -0.451111   
O115     O      0.135260000000     0.799600000000     0.318220000000    -0.451936   
O116     O      0.168630000000     0.862830000000     0.271320000000    -0.452315   
O117     O      0.203830000000     0.861480000000     0.270990000000    -0.450383   
O118     O      0.170230000000     0.797900000000     0.317010000000    -0.455239   
O119     O      0.178070000000     0.813760000000     0.247890000000    -0.451397   
O120     O      0.195830000000     0.845190000000     0.340220000000    -0.453518   
O121     O      0.995080000000     0.509720000000     0.531080000000    -0.457268   
O122     O      0.992510000000     0.488400000000     0.433810000000    -0.453437   
O123     O      0.980360000000     0.465760000000     0.498600000000    -0.458365   
O124     O      0.007390000000     0.532790000000     0.466340000000    -0.450743   
O125     O      0.045700000000     0.538710000000     0.472540000000    -0.45223    
O126     O      0.018460000000     0.471260000000     0.503360000000    -0.451585   
O127     O      0.031100000000     0.494960000000     0.439080000000    -0.453302   
O128     O      0.033260000000     0.515410000000     0.536680000000    -0.454447   
O129     O      0.839580000000     0.174350000000     0.661570000000    -0.450529   
O130     O      0.822860000000     0.153110000000     0.563640000000    -0.452558   
O131     O      0.810360000000     0.130120000000     0.628530000000    -0.451979   
O132     O      0.851720000000     0.196940000000     0.596420000000    -0.453159   
O133     O      0.884270000000     0.191050000000     0.594080000000    -0.448583   
O134     O      0.842540000000     0.123710000000     0.624840000000    -0.4519     
O135     O      0.855210000000     0.146970000000     0.560420000000    -0.453923   
O136     O      0.871460000000     0.167440000000     0.658600000000    -0.451302   
O137     O      0.641930000000     0.821540000000     0.767580000000    -0.450612   
O138     O      0.649820000000     0.851260000000     0.860510000000    -0.45566    
O139     O      0.663190000000     0.868860000000     0.792280000000    -0.451507   
O140     O      0.628770000000     0.804430000000     0.835720000000    -0.453485   
O141     O      0.664740000000     0.805010000000     0.842270000000    -0.450336   
O142     O      0.699150000000     0.869660000000     0.799600000000    -0.455886   
O143     O      0.685820000000     0.852130000000     0.867480000000    -0.452695   
O144     O      0.678300000000     0.822970000000     0.774250000000    -0.452903   


