data_structure

_audit_creation_method RASPA-1.0
_audit_creation_date 2023-5-25
_audit_author_name 'Poobodin Mano'

_cell_length_a    37.397
_cell_length_b    38.1252
_cell_length_c    37.4117
_cell_angle_alpha 90
_cell_angle_beta  90
_cell_angle_gamma 90
_cell_volume      53340.4

_symmetry_cell_setting          triclinic
_symmetry_space_group_name_Hall 'P 1'
_symmetry_space_group_name_H-M  'P 1'
_symmetry_Int_Tables_number     1

_symmetry_equiv_pos_as_xyz 'x,y,z'

loop_
_atom_site_label
_atom_site_type_symbol
_atom_site_fract_x
_atom_site_fract_y
_atom_site_fract_z
_atom_site_charge
Br1      Br     0.896170000000     0.533180000000     0.106360000000    -0.241845   
Br2      Br     0.372880000000     0.426580000000     0.035720000000    -0.240089   
Br3      Br     0.493980000000     0.879900000000     0.075960000000    -0.186707   
Br4      Br     0.437610000000     0.118950000000     0.948090000000    -0.236695   
Br5      Br     0.447060000000     0.916040000000     0.882750000000    -0.239674   
Br6      Br     0.526590000000     0.923000000000     0.108610000000    -0.186039   
Br7      Br     0.043850000000     0.450080000000     0.637540000000    -0.231999   
Br8      Br     0.052120000000     0.548950000000     0.385120000000    -0.239502   
Br9      Br     0.389600000000     0.980800000000     0.384550000000    -0.243057   
Br10     Br     0.612790000000     0.941700000000     0.581930000000    -0.239811   
Br11     Br     0.920990000000     0.867640000000     0.486790000000    -0.244399   
Br12     Br     0.948330000000     0.364750000000     0.551730000000    -0.232983   
C1       C      0.004180000000     0.052900000000     0.501620000000     0.42919    
C2       C      0.996820000000     0.919320000000     0.502440000000     0.439869   
C3       C      0.933830000000     0.988500000000     0.513980000000     0.43201    
C4       C      0.068080000000     0.982550000000     0.489650000000     0.42833    
C5       C      0.007300000000     0.419710000000     0.506450000000     0.439887   
C6       C      0.003430000000     0.553110000000     0.496870000000     0.43427    
C7       C      0.015480000000     0.483060000000     0.434400000000     0.440105   
C8       C      0.995280000000     0.490050000000     0.569140000000     0.439318   
C9       C      0.563990000000     0.996100000000     0.518810000000     0.436007   
C10      C      0.436900000000     0.998870000000     0.468930000000     0.437502   
C11      C      0.525380000000     0.001920000000     0.430380000000     0.431327   
C12      C      0.475560000000     0.993110000000     0.557220000000     0.430091   
C13      C      0.507730000000     0.994880000000     0.060650000000     0.440768   
C14      C      0.484390000000     0.986700000000     0.926450000000     0.440518   
C15      C      0.496960000000     0.058280000000     0.988950000000     0.434495   
C16      C      0.495560000000     0.924550000000     0.998110000000     0.445838   
C17      C      0.023490000000     0.488970000000     0.064350000000     0.432898   
C18      C      0.976870000000     0.508410000000     0.937680000000     0.429843   
C19      C      0.064440000000     0.494550000000     0.978280000000     0.426849   
C20      C      0.936260000000     0.502710000000     0.024740000000     0.437884   
C21      C      0.510010000000     0.424720000000     0.006480000000     0.429649   
C22      C      0.491450000000     0.557540000000     0.001000000000     0.427191   
C23      C      0.434250000000     0.481440000000     0.991600000000     0.436302   
C24      C      0.567370000000     0.499820000000     0.015840000000     0.427838   
C25      C      0.840860000000     0.481280000000     0.029800000000    -0.0313444  
C26      C      0.665830000000     0.505770000000     0.998920000000    -0.0303875  
C27      C      0.616180000000     0.508310000000     0.059110000000    -0.00431334 
C28      C      0.628490000000     0.490320000000     0.994290000000    -0.00520592 
C29      C      0.732190000000     0.487890000000     0.068350000000    -0.0525574  
C30      C      0.772290000000     0.534120000000     0.026450000000    -0.0545387  
C31      C      0.714880000000     0.508300000000     0.042480000000     0.0621241  
C32      C      0.654120000000     0.523490000000     0.059840000000    -0.0309025  
C33      C      0.789770000000     0.512690000000     0.051750000000     0.0646393  
C34      C      0.848430000000     0.542130000000     0.047200000000    -0.058713   
C35      C      0.769120000000     0.490360000000     0.073210000000    -0.0512984  
C36      C      0.888420000000     0.536630000000     0.055060000000     0.119881   
C37      C      0.879650000000     0.472560000000     0.038590000000     0.00109648 
C38      C      0.735110000000     0.532730000000     0.022670000000    -0.0539588  
C39      C      0.347630000000     0.473010000000     0.942380000000    -0.0309186  
C40      C      0.152870000000     0.458960000000     0.945180000000    -0.0308618  
C41      C      0.123440000000     0.521770000000     0.979070000000    -0.00458159 
C42      C      0.114330000000     0.457360000000     0.958870000000    -0.00398545 
C43      C      0.234220000000     0.497830000000     0.944840000000    -0.0534265  
C44      C      0.264360000000     0.444640000000     0.986460000000    -0.0524263  
C45      C      0.211880000000     0.476370000000     0.965930000000     0.0618392  
C46      C      0.161680000000     0.518260000000     0.965240000000    -0.0303803  
C47      C      0.286890000000     0.467300000000     0.967400000000     0.0653832  
C48      C      0.336070000000     0.484940000000     0.004860000000    -0.0603037  
C49      C      0.271410000000     0.494030000000     0.946420000000    -0.0555826  
C50      C      0.373710000000     0.473860000000     0.016050000000     0.122074   
C51      C      0.386550000000     0.462740000000     0.949980000000     0.00040094 
C52      C      0.227370000000     0.449370000000     0.986070000000    -0.050928   
C53      C      0.515060000000     0.830580000000     0.980430000000    -0.0320654  
C54      C      0.479580000000     0.648590000000     0.033800000000    -0.0305092  
C55      C      0.492500000000     0.612640000000     0.966170000000    -0.00483917 
C56      C      0.466500000000     0.610910000000     0.028860000000    -0.0055189  
C57      C      0.513560000000     0.718650000000     0.022780000000    -0.0537721  
C58      C      0.466830000000     0.763310000000     0.986250000000    -0.0550588  
C59      C      0.485520000000     0.704280000000     0.002300000000     0.0624057  
C60      C      0.504840000000     0.650220000000     0.974070000000    -0.0309332  
C61      C      0.493520000000     0.777740000000     0.008440000000     0.0651274  
C62      C      0.465090000000     0.833770000000     0.021820000000    -0.0573329  
C63      C      0.517100000000     0.755050000000     0.026150000000    -0.0508117  
C64      C      0.472120000000     0.872800000000     0.029340000000     0.11296    
C65      C      0.526160000000     0.868360000000     0.988300000000     0.00355473 
C66      C      0.462650000000     0.726960000000     0.983720000000    -0.0509885  
C67      C      0.534070000000     0.148610000000     0.985310000000    -0.0307696  
C68      C      0.493010000000     0.332260000000     0.030620000000    -0.0311468  
C69      C      0.536630000000     0.371520000000     0.979870000000    -0.00480231 
C70      C      0.506210000000     0.369160000000     0.040380000000    -0.0040447  
C71      C      0.530860000000     0.254320000000     0.023850000000    -0.0520083  
C72      C      0.483720000000     0.229040000000     0.971970000000    -0.051257   
C73      C      0.512130000000     0.278180000000     0.002360000000     0.0623517  
C74      C      0.522580000000     0.334530000000     0.972830000000    -0.030768   
C75      C      0.503770000000     0.205180000000     0.992240000000     0.0646902  
C76      C      0.473170000000     0.151070000000     0.007450000000    -0.0595289  
C77      C      0.526310000000     0.218160000000     0.019400000000    -0.0554078  
C78      C      0.464430000000     0.114560000000     0.992450000000     0.121204   
C79      C      0.528660000000     0.111880000000     0.969820000000     0.000140422
C80      C      0.487270000000     0.265180000000     0.977330000000    -0.053232   
C81      C      0.496240000000     0.995840000000     0.828050000000    -0.0323141  
C82      C      0.456000000000     0.951870000000     0.643770000000    -0.0318938  
C83      C      0.460490000000     0.022400000000     0.614170000000    -0.00330906 
C84      C      0.445620000000     0.958440000000     0.604720000000    -0.00392206 
C85      C      0.431550000000     0.998740000000     0.726310000000    -0.0515754  
C86      C      0.482950000000     0.954300000000     0.755860000000    -0.0497097  
C87      C      0.453380000000     0.978850000000     0.703530000000     0.0631259  
C88      C      0.471380000000     0.013290000000     0.652450000000    -0.0316344  
C89      C      0.461150000000     0.974200000000     0.778640000000     0.0653441  
C90      C      0.435660000000     0.976820000000     0.839450000000    -0.0591622  
C91      C      0.435770000000     0.997100000000     0.763410000000    -0.0541915  
C92      C      0.444250000000     0.966830000000     0.878270000000     0.12059    
C93      C      0.508670000000     0.985570000000     0.865490000000     0.00279857 
C94      C      0.479780000000     0.957090000000     0.718760000000    -0.0537848  
C95      C      0.498910000000     0.015700000000     0.157610000000    -0.0313565  
C96      C      0.544270000000     0.969040000000     0.341350000000    -0.0317921  
C97      C      0.536650000000     0.037190000000     0.375910000000    -0.00271744 
C98      C      0.557440000000     0.974450000000     0.379620000000    -0.00343737 
C99      C      0.509800000000     0.979120000000     0.270510000000    -0.053624   
C100     C      0.556080000000     0.012110000000     0.222380000000    -0.0543852  
C101     C      0.539190000000     0.998360000000     0.283600000000     0.0637175  
C102     C      0.523740000000     0.029730000000     0.337740000000    -0.0325318  
C103     C      0.528040000000     0.991000000000     0.209280000000     0.0651337  
C104     C      0.552970000000     0.981650000000     0.149310000000    -0.0563121  
C105     C      0.504790000000     0.975030000000     0.233730000000    -0.0487974  
C106     C      0.542480000000     0.971610000000     0.110950000000     0.110928   
C107     C      0.484490000000     0.005560000000     0.120860000000     0.00158703 
C108     C      0.561870000000     0.015150000000     0.259180000000    -0.0520589  
C109     C      0.948050000000     0.495170000000     0.657160000000    -0.0297375  
C110     C      0.982680000000     0.537660000000     0.846150000000    -0.0312361  
C111     C      0.940690000000     0.487130000000     0.886760000000    -0.00431005 
C112     C      0.970400000000     0.546280000000     0.884290000000    -0.00441738 
C113     C      0.944750000000     0.528880000000     0.766620000000    -0.0519969  
C114     C      0.994740000000     0.479960000000     0.742340000000    -0.0518673  
C115     C      0.964190000000     0.509060000000     0.791460000000     0.0620961  
C116     C      0.953500000000     0.480290000000     0.848690000000    -0.0309179  
C117     C      0.974350000000     0.498760000000     0.717430000000     0.0659007  
C118     C      0.010030000000     0.511700000000     0.665020000000    -0.0599923  
C119     C      0.950170000000     0.524360000000     0.729910000000    -0.0557856  
C120     C      0.021130000000     0.495340000000     0.629350000000     0.121878   
C121     C      0.955290000000     0.479270000000     0.620300000000    -0.000904253
C122     C      0.990390000000     0.485520000000     0.778950000000    -0.0533432  
C123     C      0.000770000000     0.465570000000     0.337260000000    -0.0319595  
C124     C      0.047100000000     0.514600000000     0.154860000000    -0.0318713  
C125     C      0.032530000000     0.449740000000     0.116240000000    -0.0024888  
C126     C      0.058480000000     0.510760000000     0.115880000000    -0.00297808 
C127     C      0.062720000000     0.461280000000     0.233020000000    -0.0523931  
C128     C      0.011440000000     0.505590000000     0.263100000000    -0.0488863  
C129     C      0.041330000000     0.481970000000     0.210640000000     0.0641412  
C130     C      0.021510000000     0.455670000000     0.155230000000    -0.0322315  
C131     C      0.033580000000     0.485770000000     0.285580000000     0.0650988  
C132     C      0.061490000000     0.485690000000     0.345250000000    -0.0589335  
C133     C      0.058540000000     0.462570000000     0.270140000000    -0.0539938  
C134     C      0.054360000000     0.497940000000     0.383630000000     0.119877   
C135     C      0.989530000000     0.477790000000     0.374460000000     0.00190074 
C136     C      0.014630000000     0.503230000000     0.226020000000    -0.054471   
C137     C      0.342470000000     0.020660000000     0.471810000000    -0.0310043  
C138     C      0.154440000000     0.980400000000     0.439520000000    -0.0306595  
C139     C      0.129400000000     0.981970000000     0.513380000000    -0.00414697 
C140     C      0.116790000000     0.967060000000     0.448120000000    -0.00552528 
C141     C      0.240400000000     0.959970000000     0.482800000000    -0.0519218  
C142     C      0.265600000000     0.009400000000     0.433850000000    -0.0508445  
C143     C      0.215800000000     0.980200000000     0.463460000000     0.0623352  
C144     C      0.165790000000     0.995780000000     0.501260000000    -0.0309772  
C145     C      0.290150000000     0.988730000000     0.452780000000     0.0645368  
C146     C      0.349550000000     0.962020000000     0.446860000000    -0.0588022  
C147     C      0.277140000000     0.964630000000     0.478230000000    -0.0549429  
C148     C      0.388060000000     0.969820000000     0.435320000000     0.12009    
C149     C      0.380230000000     0.031120000000     0.460160000000     0.000805821
C150     C      0.228820000000     0.005780000000     0.439550000000    -0.0541118  
C151     C      0.653990000000     0.029230000000     0.540120000000    -0.0306553  
C152     C      0.845520000000     0.006320000000     0.556610000000    -0.030356   
C153     C      0.873920000000     0.972940000000     0.492420000000    -0.00798845 
C154     C      0.883930000000     0.992220000000     0.556890000000    -0.00449668 
C155     C      0.766330000000     0.015270000000     0.517060000000    -0.0539357  
C156     C      0.730370000000     0.973680000000     0.566930000000    -0.0516271  
C157     C      0.785650000000     0.990570000000     0.537400000000     0.063087   
C158     C      0.836070000000     0.987500000000     0.495490000000    -0.0282745  
C159     C      0.710680000000     0.996670000000     0.545260000000     0.0646609  
C160     C      0.657220000000     0.967280000000     0.525270000000    -0.0600893  
C161     C      0.729150000000     0.017480000000     0.520110000000    -0.0546918  
C162     C      0.617690000000     0.961640000000     0.534300000000     0.121731   
C163     C      0.614140000000     0.026520000000     0.549080000000     0.000345424
C164     C      0.767340000000     0.970380000000     0.562770000000    -0.0509767  
C165     C      0.012750000000     0.826210000000     0.526450000000    -0.0316284  
C166     C      0.966360000000     0.643070000000     0.487080000000    -0.0293055  
C167     C      0.035300000000     0.609490000000     0.499690000000    -0.00504429 
C168     C      0.972280000000     0.605500000000     0.474180000000    -0.00593421 
C169     C      0.018420000000     0.721940000000     0.471760000000    -0.051861   
C170     C      0.970340000000     0.750490000000     0.520960000000    -0.050399   
C171     C      0.996930000000     0.699550000000     0.492250000000     0.0641112  
C172     C      0.026040000000     0.646520000000     0.512240000000    -0.0296101  
C173     C      0.990820000000     0.772860000000     0.499470000000     0.0651089  
C174     C      0.983680000000     0.828720000000     0.468530000000    -0.0593909  
C175     C      0.015980000000     0.758260000000     0.475720000000    -0.0545325  
C176     C      0.971520000000     0.866550000000     0.474370000000     0.120706   
C177     C      0.001400000000     0.863710000000     0.535610000000     0.00178795 
C178     C      0.973750000000     0.714130000000     0.517960000000    -0.0546278  
C179     C      0.042440000000     0.327990000000     0.513960000000    -0.0299254  
C180     C      0.025640000000     0.144600000000     0.529710000000    -0.0308682  
C181     C      0.988470000000     0.108270000000     0.471890000000    -0.0051591  
C182     C      0.013780000000     0.106830000000     0.535780000000    -0.00366504 
C183     C      0.026020000000     0.218770000000     0.485890000000    -0.0538251  
C184     C      0.985530000000     0.253720000000     0.537630000000    -0.0523878  
C185     C      0.002570000000     0.199620000000     0.508000000000     0.0621078  
C186     C      0.000350000000     0.146690000000     0.470400000000    -0.0304558  
C187     C      0.008060000000     0.273040000000     0.515150000000     0.0662621  
C188     C      0.980730000000     0.326550000000     0.494550000000    -0.0602572  
C189     C      0.027960000000     0.255300000000     0.488740000000    -0.0561067  
C190     C      0.973930000000     0.364270000000     0.506390000000     0.122178   
C191     C      0.039710000000     0.366500000000     0.525360000000    -0.000651654
C192     C      0.982600000000     0.217460000000     0.533910000000    -0.0511513  
H1       H      0.722640000000     0.549660000000     0.003120000000     0.0418634  
H2       H      0.824750000000     0.457020000000     0.033730000000     0.0371105  
H3       H      0.837870000000     0.563530000000     0.064450000000     0.0599077  
H4       H      0.616130000000     0.482870000000     0.073650000000     0.041532   
H5       H      0.880860000000     0.461020000000     0.065860000000     0.0520424  
H6       H      0.684550000000     0.491270000000     0.981100000000     0.0356876  
H7       H      0.664010000000     0.522550000000     0.087900000000     0.0372902  
H8       H      0.618750000000     0.497060000000     0.967050000000     0.0425133  
H9       H      0.903090000000     0.560320000000     0.045840000000     0.0306454  
H10      H      0.787070000000     0.551430000000     0.009010000000     0.0423317  
H11      H      0.888960000000     0.452240000000     0.019410000000     0.041788   
H12      H      0.717060000000     0.469310000000     0.084170000000     0.0470058  
H13      H      0.838510000000     0.489200000000     0.001220000000     0.0394804  
H14      H      0.598020000000     0.526430000000     0.073750000000     0.0412444  
H15      H      0.665220000000     0.533750000000     0.990390000000     0.0378047  
H16      H      0.653740000000     0.551450000000     0.051200000000     0.0403547  
H17      H      0.782020000000     0.473460000000     0.092580000000     0.0510062  
H18      H      0.845970000000     0.550640000000     0.018860000000     0.0440068  
H19      H      0.630440000000     0.461240000000     0.995660000000     0.0383602  
H20      H      0.210660000000     0.432410000000     0.002210000000     0.0480914  
H21      H      0.338230000000     0.458370000000     0.918430000000     0.0386259  
H22      H      0.317600000000     0.480350000000     0.027750000000     0.0584146  
H23      H      0.124300000000     0.523870000000     0.008730000000     0.0409389  
H24      H      0.388710000000     0.433670000000     0.949190000000     0.0505983  
H25      H      0.163870000000     0.431820000000     0.945150000000     0.0369073  
H26      H      0.179130000000     0.536050000000     0.981140000000     0.0364959  
H27      H      0.097080000000     0.445260000000     0.938010000000     0.039464   
H28      H      0.382450000000     0.491720000000     0.037880000000     0.0289298  
H29      H      0.275730000000     0.424180000000     0.003020000000     0.0581603  
H30      H      0.403680000000     0.473180000000     0.928140000000     0.0419738  
H31      H      0.223300000000     0.518480000000     0.928320000000     0.0416899  
H32      H      0.346860000000     0.501570000000     0.936260000000     0.0374362  
H33      H      0.112050000000     0.546880000000     0.969050000000     0.0415269  
H34      H      0.153440000000     0.468760000000     0.917130000000     0.0393242  
H35      H      0.162560000000     0.526950000000     0.936820000000     0.0366383  
H36      H      0.287740000000     0.512410000000     0.931700000000     0.0422741  
H37      H      0.335670000000     0.513570000000     0.998900000000     0.0461571  
H38      H      0.113430000000     0.439670000000     0.982510000000     0.0429105  
H39      H      0.441530000000     0.716340000000     0.967130000000     0.0477191  
H40      H      0.539460000000     0.815530000000     0.972970000000     0.0404311  
H41      H      0.452740000000     0.821550000000     0.045850000000     0.0612088  
H42      H      0.467320000000     0.613760000000     0.950410000000     0.04001    
H43      H      0.548050000000     0.868210000000     0.008430000000     0.056734   
H44      H      0.461290000000     0.662170000000     0.052760000000     0.0387703  
H45      H      0.505490000000     0.665010000000     0.948420000000     0.037132   
H46      H      0.469300000000     0.596850000000     0.054740000000     0.0445418  
H47      H      0.445840000000     0.886430000000     0.030230000000     0.036248   
H48      H      0.449080000000     0.779990000000     0.971030000000     0.0464413  
H49      H      0.536870000000     0.880280000000     0.963350000000     0.0457522  
H50      H      0.532460000000     0.701890000000     0.036440000000     0.0439663  
H51      H      0.496310000000     0.830110000000     0.957280000000     0.0473845  
H52      H      0.513130000000     0.599560000000     0.949410000000     0.0418613  
H53      H      0.506780000000     0.647880000000     0.045860000000     0.0400064  
H54      H      0.532440000000     0.649820000000     0.985270000000     0.0401496  
H55      H      0.538390000000     0.765680000000     0.042510000000     0.0536839  
H56      H      0.445310000000     0.832190000000     0.999670000000     0.0490546  
H57      H      0.437530000000     0.611580000000     0.022200000000     0.0391132  
H58      H      0.471200000000     0.282740000000     0.961310000000     0.0455092  
H59      H      0.554520000000     0.162490000000     0.968970000000     0.0384785  
H60      H      0.448170000000     0.166930000000     0.008270000000     0.0593218  
H61      H      0.564860000000     0.369520000000     0.988980000000     0.0374069  
H62      H      0.524240000000     0.114280000000     0.940530000000     0.0506844  
H63      H      0.490050000000     0.316910000000     0.055760000000     0.0393866  
H64      H      0.541680000000     0.320770000000     0.954840000000     0.0372763  
H65      H      0.485120000000     0.382560000000     0.056270000000     0.0494155  
H66      H      0.446760000000     0.101010000000     0.011980000000     0.0293776  
H67      H      0.465410000000     0.219520000000     0.951750000000     0.0572656  
H68      H      0.553720000000     0.096660000000     0.973650000000     0.0426927  
H69      H      0.549290000000     0.263850000000     0.043950000000     0.0461025  
H70      H      0.544460000000     0.145890000000     0.013050000000     0.0379744  
H71      H      0.536650000000     0.386340000000     0.954290000000     0.0433005  
H72      H      0.466280000000     0.333970000000     0.017590000000     0.0472438  
H73      H      0.496390000000     0.336750000000     0.958880000000     0.0416038  
H74      H      0.541060000000     0.200590000000     0.036630000000     0.0424858  
H75      H      0.483140000000     0.148570000000     0.035400000000     0.0458969  
H76      H      0.530390000000     0.366700000000     0.057500000000     0.0405008  
H77      H      0.498110000000     0.942250000000     0.702350000000     0.0471237  
H78      H      0.519620000000     0.993780000000     0.809740000000     0.0386625  
H79      H      0.413220000000     0.960280000000     0.829540000000     0.0613007  
H80      H      0.432530000000     0.032340000000     0.614390000000     0.0385347  
H81      H      0.522760000000     0.959920000000     0.863990000000     0.0515805  
H82      H      0.439700000000     0.929730000000     0.654250000000     0.0394051  
H83      H      0.466890000000     0.036890000000     0.669390000000     0.0370914  
H84      H      0.453050000000     0.935110000000     0.588540000000     0.0459358  
H85      H      0.421570000000     0.975500000000     0.895340000000     0.0339971  
H86      H      0.503220000000     0.937210000000     0.767030000000     0.0519994  
H87      H      0.528340000000     0.005440000000     0.874860000000     0.0425444  
H88      H      0.411750000000     0.016330000000     0.715120000000     0.046726   
H89      H      0.486990000000     0.023630000000     0.827890000000     0.0433114  
H90      H      0.478100000000     0.043880000000     0.604470000000     0.0436939  
H91      H      0.484680000000     0.944150000000     0.644340000000     0.0457664  
H92      H      0.500400000000     0.006700000000     0.653400000000     0.0456178  
H93      H      0.419180000000     0.013790000000     0.779830000000     0.0449843  
H94      H      0.426590000000     0.004630000000     0.839150000000     0.0482879  
H95      H      0.416070000000     0.961360000000     0.603250000000     0.0376118  
H96      H      0.583980000000     0.030890000000     0.268790000000     0.0464631  
H97      H      0.475670000000     0.020670000000     0.175520000000     0.0396944  
H98      H      0.570090000000     0.960640000000     0.160880000000     0.0601935  
H99      H      0.563790000000     0.049040000000     0.374540000000     0.03844    
H100     H      0.464870000000     0.983850000000     0.124060000000     0.0578726  
H101     H      0.561380000000     0.948900000000     0.328270000000     0.0401405  
H102     H      0.525640000000     0.054460000000     0.322040000000     0.0384515  
H103     H      0.554200000000     0.949580000000     0.394780000000     0.0455319  
H104     H      0.566720000000     0.973520000000     0.093850000000     0.0322515  
H105     H      0.573670000000     0.026110000000     0.204430000000     0.0427368  
H106     H      0.469980000000     0.028410000000     0.109340000000     0.0402697  
H107     H      0.490840000000     0.967030000000     0.288520000000     0.0501548  
H108     H      0.514740000000     0.040380000000     0.155650000000     0.0394808  
H109     H      0.518330000000     0.056590000000     0.388440000000     0.0446219  
H110     H      0.516380000000     0.958960000000     0.342550000000     0.0470714  
H111     H      0.495180000000     0.021420000000     0.338330000000     0.0495439  
H112     H      0.482390000000     0.959660000000     0.224150000000     0.0555023  
H113     H      0.569210000000     0.006070000000     0.147950000000     0.0435853  
H114     H      0.586510000000     0.980530000000     0.378680000000     0.0376609  
H115     H      0.007060000000     0.470910000000     0.797260000000     0.0441449  
H116     H      0.925040000000     0.481120000000     0.669440000000     0.0406644  
H117     H      0.033390000000     0.511220000000     0.683470000000     0.057489   
H118     H      0.912940000000     0.497530000000     0.885460000000     0.0367466  
H119     H      0.955500000000     0.450210000000     0.622840000000     0.0602692  
H120     H      0.984430000000     0.562620000000     0.830800000000     0.0364702  
H121     H      0.933810000000     0.462930000000     0.835110000000     0.0379548  
H122     H      0.991070000000     0.562830000000     0.897420000000     0.0417335  
H123     H      0.041530000000     0.512740000000     0.616930000000     0.0281477  
H124     H      0.014250000000     0.460950000000     0.733220000000     0.058489   
H125     H      0.932720000000     0.486200000000     0.602290000000     0.0469363  
H126     H      0.925220000000     0.547830000000     0.775800000000     0.0459432  
H127     H      0.940560000000     0.523220000000     0.653580000000     0.0375093  
H128     H      0.939750000000     0.461940000000     0.901680000000     0.0422787  
H129     H      0.009800000000     0.525600000000     0.846950000000     0.0410175  
H130     H      0.979570000000     0.466330000000     0.850260000000     0.0414338  
H131     H      0.934910000000     0.540410000000     0.711620000000     0.0427202  
H132     H      0.002440000000     0.539680000000     0.660970000000     0.0455424  
H133     H      0.945150000000     0.561620000000     0.882820000000     0.0389119  
H134     H      0.996520000000     0.518360000000     0.209620000000     0.049317   
H135     H      0.976760000000     0.466350000000     0.319660000000     0.0382816  
H136     H      0.083420000000     0.501690000000     0.333470000000     0.0607178  
H137     H      0.058560000000     0.435640000000     0.115800000000     0.0391459  
H138     H      0.974520000000     0.502860000000     0.371910000000     0.0517756  
H139     H      0.066290000000     0.532370000000     0.168610000000     0.0400959  
H140     H      0.021740000000     0.429880000000     0.169180000000     0.0377704  
H141     H      0.056780000000     0.536740000000     0.102530000000     0.0448992  
H142     H      0.077570000000     0.490040000000     0.400390000000     0.0302716  
H143     H      0.991370000000     0.522760000000     0.274490000000     0.0528741  
H144     H      0.970920000000     0.458010000000     0.385960000000     0.0405257  
H145     H      0.082660000000     0.444010000000     0.221570000000     0.0469959  
H146     H      0.010420000000     0.437940000000     0.338320000000     0.0391968  
H147     H      0.012170000000     0.432820000000     0.103130000000     0.0437619  
H148     H      0.020150000000     0.526940000000     0.155320000000     0.0473302  
H149     H      0.993780000000     0.466330000000     0.156250000000     0.0478924  
H150     H      0.075190000000     0.445840000000     0.286480000000     0.0429576  
H151     H      0.070700000000     0.457930000000     0.346170000000     0.0438598  
H152     H      0.086970000000     0.502420000000     0.115270000000     0.0378234  
H153     H      0.210900000000     0.022850000000     0.425040000000     0.0431273  
H154     H      0.325520000000     0.044670000000     0.471770000000     0.0373764  
H155     H      0.337650000000     0.942330000000     0.428400000000     0.0603732  
H156     H      0.132980000000     0.955340000000     0.524980000000     0.0401427  
H157     H      0.378540000000     0.045130000000     0.434150000000     0.0536993  
H158     H      0.164800000000     0.965720000000     0.415990000000     0.0380557  
H159     H      0.184730000000     0.993200000000     0.524070000000     0.0355062  
H160     H      0.098520000000     0.974970000000     0.426110000000     0.0434646  
H161     H      0.404090000000     0.945530000000     0.438950000000     0.03169    
H162     H      0.275120000000     0.028800000000     0.414960000000     0.0513092  
H163     H      0.391300000000     0.049690000000     0.480230000000     0.0418535  
H164     H      0.230940000000     0.940880000000     0.502050000000     0.0459128  
H165     H      0.343170000000     0.010100000000     0.499570000000     0.0396456  
H166     H      0.119160000000     0.999390000000     0.534930000000     0.0412212  
H167     H      0.152550000000     0.008680000000     0.432320000000     0.0387058  
H168     H      0.163770000000     0.024120000000     0.494270000000     0.0399297  
H169     H      0.295060000000     0.949230000000     0.494560000000     0.0428128  
H170     H      0.350730000000     0.950250000000     0.474040000000     0.0451738  
H171     H      0.117370000000     0.937910000000     0.448650000000     0.0391861  
H172     H      0.781760000000     0.951560000000     0.578970000000     0.0501389  
H173     H      0.666020000000     0.050470000000     0.556600000000     0.0383447  
H174     H      0.671800000000     0.942230000000     0.530010000000     0.0590626  
H175     H      0.872780000000     0.943950000000     0.495560000000     0.0559434  
H176     H      0.611260000000     0.024430000000     0.578580000000     0.0516527  
H177     H      0.834980000000     0.005170000000     0.584420000000     0.0373832  
H178     H      0.818300000000     0.972210000000     0.477400000000     0.0395745  
H179     H      0.901070000000     0.010590000000     0.572390000000     0.0413673  
H180     H      0.606900000000     0.942010000000     0.515140000000     0.0300448  
H181     H      0.716730000000     0.957260000000     0.586220000000     0.0574822  
H182     H      0.600700000000     0.051180000000     0.540690000000     0.0425311  
H183     H      0.779530000000     0.032020000000     0.497850000000     0.0420399  
H184     H      0.656360000000     0.036500000000     0.511410000000     0.0383199  
H185     H      0.884000000000     0.978390000000     0.465010000000     0.0488299  
H186     H      0.845350000000     0.034250000000     0.547870000000     0.0401279  
H187     H      0.836370000000     0.015300000000     0.486400000000     0.0383417  
H188     H      0.715200000000     0.035260000000     0.502480000000     0.0420602  
H189     H      0.659990000000     0.973800000000     0.496360000000     0.046901   
H190     H      0.884250000000     0.966480000000     0.570880000000     0.0457881  
H191     H      0.957910000000     0.697660000000     0.535350000000     0.0436926  
H192     H      0.015040000000     0.811150000000     0.551840000000     0.0377125  
H193     H      0.964490000000     0.815260000000     0.450370000000     0.0608905  
H194     H      0.051090000000     0.611280000000     0.474560000000     0.0515866  
H195     H      0.977530000000     0.862680000000     0.553310000000     0.0522993  
H196     H      0.946940000000     0.656090000000     0.468850000000     0.0399254  
H197     H      0.051180000000     0.662130000000     0.513140000000     0.0375238  
H198     H      0.947020000000     0.590550000000     0.477820000000     0.0459636  
H199     H      0.974250000000     0.880670000000     0.448510000000     0.0304154  
H200     H      0.951650000000     0.761350000000     0.540110000000     0.0523261  
H201     H      0.023380000000     0.876500000000     0.550820000000     0.0401686  
H202     H      0.037220000000     0.711100000000     0.452720000000     0.0498634  
H203     H      0.039510000000     0.826460000000     0.513330000000     0.0391794  
H204     H      0.052500000000     0.596910000000     0.520300000000     0.0447889  
H205     H      0.954500000000     0.642050000000     0.514340000000     0.0390994  
H206     H      0.014650000000     0.645620000000     0.539750000000     0.0397584  
H207     H      0.033320000000     0.774730000000     0.459820000000     0.0436433  
H208     H      0.010190000000     0.829370000000     0.455020000000     0.0449497  
H209     H      0.978140000000     0.606100000000     0.445050000000     0.0495189  
H210     H      0.964830000000     0.203080000000     0.551450000000     0.0482686  
H211     H      0.062840000000     0.314780000000     0.530920000000     0.0403322  
H212     H      0.955040000000     0.311800000000     0.495750000000     0.0583546  
H213     H      0.958900000000     0.107450000000     0.474990000000     0.0395078  
H214     H      0.038040000000     0.367650000000     0.555010000000     0.0594018  
H215     H      0.027060000000     0.157830000000     0.556220000000     0.0369852  
H216     H      0.981900000000     0.161270000000     0.452390000000     0.0364883  
H217     H      0.035440000000     0.092760000000     0.550300000000     0.0409315  
H218     H      0.956160000000     0.376690000000     0.486170000000     0.0285829  
H219     H      0.969650000000     0.267010000000     0.557700000000     0.0592855  
H220     H      0.064750000000     0.380170000000     0.517420000000     0.0461787  
H221     H      0.042440000000     0.205780000000     0.466120000000     0.0415632  
H222     H      0.051610000000     0.327000000000     0.485670000000     0.0372229  
H223     H      0.994850000000     0.095650000000     0.445860000000     0.0423435  
H224     H      0.052880000000     0.145200000000     0.517640000000     0.0395315  
H225     H      0.027730000000     0.147880000000     0.458790000000     0.0372455  
H226     H      0.045000000000     0.269440000000     0.470380000000     0.0422855  
H227     H      0.990020000000     0.326160000000     0.466250000000     0.0455232  
H228     H      0.989780000000     0.106820000000     0.553340000000     0.0415284  
N1       N      0.902040000000     0.504450000000     0.037650000000    -0.178894   
N2       N      0.828320000000     0.509430000000     0.053530000000    -0.100755   
N3       N      0.677110000000     0.502480000000     0.036410000000    -0.112345   
N4       N      0.603300000000     0.502260000000     0.022260000000    -0.171523   
N5       N      0.398740000000     0.475020000000     0.985490000000    -0.178925   
N6       N      0.325030000000     0.464570000000     0.973440000000    -0.100103   
N7       N      0.173660000000     0.481770000000     0.968850000000    -0.111374   
N8       N      0.099860000000     0.492010000000     0.969370000000    -0.17099    
N9       N      0.495880000000     0.888910000000     0.002400000000    -0.174861   
N10      N      0.498380000000     0.815230000000     0.012350000000    -0.101141   
N11      N      0.479840000000     0.666870000000     0.999150000000    -0.112549   
N12      N      0.485670000000     0.593000000000     0.999500000000    -0.171252   
N13      N      0.497340000000     0.094080000000     0.985760000000    -0.178195   
N14      N      0.500070000000     0.168100000000     0.984740000000    -0.100537   
N15      N      0.519020000000     0.315300000000     0.006800000000    -0.11248    
N16      N      0.515660000000     0.389280000000     0.008020000000    -0.170403   
N17      N      0.478370000000     0.982330000000     0.890640000000    -0.17757    
N18      N      0.467500000000     0.972080000000     0.816780000000    -0.100208   
N19      N      0.449680000000     0.983710000000     0.665290000000    -0.112138   
N20      N      0.462270000000     0.990970000000     0.591240000000    -0.171013   
N21      N      0.513380000000     0.993900000000     0.096760000000    -0.177373   
N22      N      0.520870000000     0.986870000000     0.171500000000    -0.10087    
N23      N      0.546180000000     0.002370000000     0.321410000000    -0.11215    
N24      N      0.538640000000     0.004230000000     0.396380000000    -0.171054   
N25      N      0.990070000000     0.490570000000     0.605350000000    -0.177641   
N26      N      0.980000000000     0.491700000000     0.679850000000    -0.0998043  
N27      N      0.956890000000     0.513740000000     0.829110000000    -0.112858   
N28      N      0.963690000000     0.513540000000     0.904040000000    -0.172629   
N29      N      0.020600000000     0.483530000000     0.398200000000    -0.179365   
N30      N      0.028710000000     0.489060000000     0.323780000000    -0.100423   
N31      N      0.046780000000     0.479950000000     0.172440000000    -0.112132   
N32      N      0.036730000000     0.483710000000     0.097950000000    -0.171483   
N33      N      0.402750000000     0.999620000000     0.455860000000    -0.178899   
N34      N      0.327980000000     0.994440000000     0.446880000000    -0.100585   
N35      N      0.178080000000     0.975140000000     0.470530000000    -0.112294   
N36      N      0.103990000000     0.979680000000     0.483250000000    -0.171729   
N37      N      0.597950000000     0.995140000000     0.532430000000    -0.178862   
N38      N      0.672000000000     0.995590000000     0.547520000000    -0.100191   
N39      N      0.823600000000     0.984660000000     0.532680000000    -0.111241   
N40      N      0.897830000000     0.987290000000     0.520280000000    -0.169436   
N41      N      0.992260000000     0.883770000000     0.503110000000    -0.179832   
N42      N      0.985810000000     0.810250000000     0.503010000000    -0.100438   
N43      N      0.000550000000     0.662190000000     0.487090000000    -0.111411   
N44      N      0.002710000000     0.588720000000     0.492700000000    -0.169179   
N45      N      0.007750000000     0.384030000000     0.510320000000    -0.178042   
N46      N      0.007500000000     0.310770000000     0.518220000000    -0.0999642  
N47      N      0.999510000000     0.161890000000     0.506490000000    -0.11213    
N48      N      0.004720000000     0.088760000000     0.502000000000    -0.171872   
Ni1      Ni     0.995150000000     0.986040000000     0.470590000000     1.00723    
Ni2      Ni     0.006800000000     0.986090000000     0.533170000000     1.00347    
Ni3      Ni     0.973970000000     0.485060000000     0.496980000000     1.01444    
Ni4      Ni     0.036850000000     0.487800000000     0.506540000000     1.01171    
Ni5      Ni     0.500670000000     0.966400000000     0.491450000000     1.00774    
Ni6      Ni     0.500250000000     0.028620000000     0.496120000000     1.00011    
Ni7      Ni     0.527410000000     0.990600000000     0.987850000000     1.00347    
Ni8      Ni     0.464880000000     0.992160000000     0.999160000000     1.01085    
Ni9      Ni     0.996620000000     0.467910000000     0.997310000000     1.00399    
Ni10     Ni     0.003770000000     0.529540000000     0.004720000000     1.00364    
Ni11     Ni     0.494840000000     0.491710000000     0.034960000000     1.0058     
Ni12     Ni     0.506660000000     0.490520000000     0.972460000000     0.996884   
O1       O      0.997780000000     0.036330000000     0.472440000000    -0.45012    
O2       O      0.992500000000     0.936090000000     0.473070000000    -0.448501   
O3       O      0.945370000000     0.987970000000     0.481750000000    -0.448778   
O4       O      0.045920000000     0.983200000000     0.463470000000    -0.450166   
O5       O      0.056650000000     0.983830000000     0.521940000000    -0.451339   
O6       O      0.955920000000     0.988680000000     0.540260000000    -0.446497   
O7       O      0.004000000000     0.935890000000     0.531410000000    -0.449837   
O8       O      0.009130000000     0.036010000000     0.530810000000    -0.45343    
O9       O      0.977520000000     0.435340000000     0.500710000000    -0.444685   
O10      O      0.974600000000     0.535210000000     0.493350000000    -0.450375   
O11      O      0.983620000000     0.481790000000     0.446950000000    -0.451869   
O12      O      0.968410000000     0.488010000000     0.547910000000    -0.446701   
O13      O      0.027180000000     0.490600000000     0.556620000000    -0.441236   
O14      O      0.042350000000     0.485450000000     0.455590000000    -0.444325   
O15      O      0.033180000000     0.537680000000     0.503330000000    -0.447196   
O16      O      0.036290000000     0.437480000000     0.509550000000    -0.445675   
O17      O      0.547810000000     0.967350000000     0.511360000000    -0.443485   
O18      O      0.453640000000     0.969620000000     0.471340000000    -0.447976   
O19      O      0.520930000000     0.971740000000     0.444790000000    -0.44785    
O20      O      0.480400000000     0.965170000000     0.538680000000    -0.445203   
O21      O      0.483080000000     0.023200000000     0.543920000000    -0.450461   
O22      O      0.517440000000     0.029890000000     0.447730000000    -0.447638   
O23      O      0.452020000000     0.027450000000     0.478850000000    -0.44924    
O24      O      0.548360000000     0.025620000000     0.513690000000    -0.449965   
O25      O      0.534020000000     0.991060000000     0.038910000000    -0.441976   
O26      O      0.516540000000     0.989720000000     0.937950000000    -0.4489     
O27      O      0.526250000000     0.040890000000     0.986610000000    -0.450398   
O28      O      0.524370000000     0.940460000000     0.989070000000    -0.442987   
O29      O      0.466980000000     0.942060000000     0.004650000000    -0.437197   
O30      O      0.467210000000     0.042140000000     0.993670000000    -0.439327   
O31      O      0.458110000000     0.986500000000     0.948540000000    -0.438821   
O32      O      0.475730000000     0.997610000000     0.048760000000    -0.446017   
O33      O      0.014040000000     0.462630000000     0.045230000000    -0.449322   
O34      O      0.978970000000     0.477250000000     0.950310000000    -0.452546   
O35      O      0.044870000000     0.466900000000     0.979550000000    -0.448686   
O36      O      0.949180000000     0.472980000000     0.015350000000    -0.452541   
O37      O      0.955410000000     0.530560000000     0.022300000000    -0.443403   
O38      O      0.051500000000     0.524390000000     0.987380000000    -0.451522   
O39      O      0.986800000000     0.534770000000     0.956560000000    -0.449509   
O40      O      0.020950000000     0.520200000000     0.051930000000    -0.447597   
O41      O      0.501820000000     0.441740000000     0.034930000000    -0.443696   
O42      O      0.488070000000     0.541310000000     0.030820000000    -0.449812   
O43      O      0.445510000000     0.484770000000     0.023790000000    -0.442736   
O44      O      0.545230000000     0.498840000000     0.042050000000    -0.448516   
O45      O      0.556070000000     0.497060000000     0.983620000000    -0.451389   
O46      O      0.456280000000     0.483270000000     0.965360000000    -0.448479   
O47      O      0.499610000000     0.540520000000     0.972530000000    -0.447695   
O48      O      0.513450000000     0.440910000000     0.976640000000    -0.448531   


