data_structure

_audit_creation_method RASPA-1.0
_audit_creation_date 2023-5-25
_audit_author_name 'Poobodin Mano'

_cell_length_a    38.1118
_cell_length_b    37.8314
_cell_length_c    37.8703
_cell_angle_alpha 90
_cell_angle_beta  90
_cell_angle_gamma 90
_cell_volume      54602.3

_symmetry_cell_setting          triclinic
_symmetry_space_group_name_Hall 'P 1'
_symmetry_space_group_name_H-M  'P 1'
_symmetry_Int_Tables_number     1

_symmetry_equiv_pos_as_xyz 'x,y,z'

loop_
_atom_site_label
_atom_site_type_symbol
_atom_site_fract_x
_atom_site_fract_y
_atom_site_fract_z
_atom_site_charge
C1       C      0.995830000000     0.067810000000     0.478120000000     0.436674   
C2       C      0.984910000000     0.934090000000     0.493430000000     0.43343    
C3       C      0.924430000000     0.007420000000     0.486540000000     0.43471    
C4       C      0.057910000000     0.995480000000     0.484930000000     0.427541   
C5       C      0.990360000000     0.519770000000     0.430310000000     0.427853   
C6       C      0.994540000000     0.483540000000     0.560260000000     0.427761   
C7       C      0.991860000000     0.566710000000     0.513360000000     0.428412   
C8       C      0.993410000000     0.436670000000     0.476950000000     0.428099   
C9       C      0.495550000000     0.990910000000     0.430030000000     0.433548   
C10      C      0.488970000000     0.005090000000     0.563870000000     0.437089   
C11      C      0.558110000000     0.005620000000     0.499580000000     0.428936   
C12      C      0.425060000000     0.990580000000     0.495520000000     0.432773   
C13      C      0.484630000000     0.967230000000     0.063680000000     0.428723   
C14      C      0.478710000000     0.994930000000     0.931880000000     0.427761   
C15      C      0.492030000000     0.046770000000     0.011830000000     0.429216   
C16      C      0.471630000000     0.916470000000     0.983510000000     0.433284   
C17      C      0.992730000000     0.508290000000     0.062010000000     0.43206    
C18      C      0.000810000000     0.494700000000     0.928120000000     0.431742   
C19      C      0.062820000000     0.499760000000     0.999900000000     0.426166   
C20      C      0.929290000000     0.503240000000     0.990370000000     0.432291   
C21      C      0.498970000000     0.415310000000     0.000540000000     0.43381    
C22      C      0.491460000000     0.549910000000     0.994100000000     0.427935   
C23      C      0.428890000000     0.477660000000     0.994760000000     0.433256   
C24      C      0.562440000000     0.487480000000     0.999530000000     0.426895   
C25      C      0.837710000000     0.533440000000     0.003840000000    -0.0330697  
C26      C      0.654540000000     0.500200000000     0.033500000000    -0.0305682  
C27      C      0.617840000000     0.488420000000     0.966770000000    -0.00408976 
C28      C      0.614970000000     0.507500000000     0.031690000000    -0.00557665 
C29      C      0.725030000000     0.528550000000     0.973390000000    -0.0536689  
C30      C      0.765960000000     0.484460000000     0.015890000000    -0.0547803  
C31      C      0.708520000000     0.506590000000     0.998130000000     0.0614699  
C32      C      0.656550000000     0.480410000000     0.972940000000    -0.0308875  
C33      C      0.782250000000     0.505510000000     0.989880000000     0.0622075  
C34      C      0.837180000000     0.471160000000     0.988900000000    -0.0747837  
C35      C      0.761380000000     0.527750000000     0.969060000000    -0.0522173  
C36      C      0.874510000000     0.472580000000     0.973960000000     0.171204   
C37      C      0.874790000000     0.538280000000     0.989100000000     0.00346969 
C38      C      0.729380000000     0.484200000000     0.019250000000    -0.0551881  
C39      C      0.337440000000     0.492770000000     0.966130000000    -0.0331104  
C40      C      0.152150000000     0.462300000000     0.010190000000    -0.029977   
C41      C      0.119710000000     0.530290000000     0.994310000000    -0.00484589 
C42      C      0.115210000000     0.470040000000     0.023760000000    -0.00623032 
C43      C      0.222710000000     0.464430000000     0.978450000000    -0.055556   
C44      C      0.269120000000     0.507840000000     0.015740000000    -0.0549376  
C45      C      0.209360000000     0.490420000000     0.001500000000     0.0624798  
C46      C      0.156270000000     0.519490000000     0.981460000000    -0.0309598  
C47      C      0.282380000000     0.479760000000     0.995250000000     0.0624632  
C48      C      0.337750000000     0.473770000000     0.027420000000    -0.0746438  
C49      C      0.258870000000     0.458800000000     0.976000000000    -0.051326   
C50      C      0.374540000000     0.458010000000     0.024110000000     0.171231   
C51      C      0.374190000000     0.477550000000     0.959860000000     0.00386036 
C52      C      0.232940000000     0.512570000000     0.019300000000    -0.0533414  
C53      C      0.440300000000     0.826090000000     0.995150000000    -0.0331003  
C54      C      0.486800000000     0.640530000000     0.955770000000    -0.0305122  
C55      C      0.482020000000     0.606490000000     0.024750000000    -0.00437166 
C56      C      0.504150000000     0.604520000000     0.961170000000    -0.00547981 
C57      C      0.452570000000     0.709910000000     0.961730000000    -0.0553447  
C58      C      0.489240000000     0.757730000000     0.004250000000    -0.0556331  
C59      C      0.477730000000     0.697250000000     0.985940000000     0.061375   
C60      C      0.464940000000     0.642000000000     0.015820000000    -0.0308034  
C61      C      0.466720000000     0.770500000000     0.977650000000     0.0622761  
C62      C      0.497620000000     0.825590000000     0.966400000000    -0.0748341  
C63      C      0.447720000000     0.746270000000     0.957240000000    -0.0521968  
C64      C      0.492590000000     0.863130000000     0.952530000000     0.171385   
C65      C      0.433090000000     0.863850000000     0.982170000000     0.00392949 
C66      C      0.495120000000     0.721480000000     0.007780000000    -0.0531679  
C67      C      0.499770000000     0.324670000000     0.039480000000    -0.0326163  
C68      C      0.527210000000     0.136170000000     0.000460000000    -0.0309663  
C69      C      0.470810000000     0.101820000000     0.039600000000    -0.00505472 
C70      C      0.531960000000     0.098240000000     0.013940000000    -0.00423376 
C71      C      0.481500000000     0.208380000000     0.991480000000    -0.0551993  
C72      C      0.524770000000     0.251780000000     0.032440000000    -0.0558331  
C73      C      0.503440000000     0.193120000000     0.017260000000     0.061653   
C74      C      0.468470000000     0.139570000000     0.025620000000    -0.0305225  
C75      C      0.500310000000     0.267210000000     0.009140000000     0.063121   
C76      C      0.516060000000     0.321080000000     0.977790000000    -0.0757609  
C77      C      0.479500000000     0.245080000000     0.988100000000    -0.0524738  
C78      C      0.501210000000     0.357890000000     0.969740000000     0.173744   
C79      C      0.485500000000     0.362150000000     0.035240000000     0.00336119 
C80      C      0.525720000000     0.215100000000     0.036870000000    -0.0534085  
C81      C      0.488750000000     0.979450000000     0.658430000000    -0.0327705  
C82      C      0.449470000000     0.026200000000     0.842600000000    -0.0308816  
C83      C      0.504890000000     0.983160000000     0.874130000000    -0.00486164 
C84      C      0.443650000000     0.010450000000     0.879480000000    -0.00435235 
C85      C      0.494970000000     0.035380000000     0.769850000000    -0.0555229  
C86      C      0.453200000000     0.993520000000     0.725840000000    -0.0556246  
C87      C      0.472160000000     0.010170000000     0.784780000000     0.061885   
C88      C      0.507180000000     0.000010000000     0.837720000000    -0.0301769  
C89      C      0.479130000000     0.015500000000     0.710970000000     0.062387   
C90      C      0.464600000000     0.038500000000     0.652830000000    -0.0798264  
C91      C      0.498840000000     0.037420000000     0.733220000000    -0.05263    
C92      C      0.480670000000     0.043430000000     0.615890000000     0.172131   
C93      C      0.505270000000     0.980990000000     0.621810000000     0.00332243 
C94      C      0.450340000000     0.990440000000     0.762490000000    -0.053118   
C95      C      0.481670000000     0.005180000000     0.334000000000    -0.033183   
C96      C      0.523920000000     0.955250000000     0.151930000000    -0.0308343  
C97      C      0.454310000000     0.963290000000     0.121100000000    -0.00442653 
C98      C      0.516930000000     0.941830000000     0.114440000000    -0.00543638 
C99      C      0.518460000000     0.987350000000     0.223100000000    -0.0557375  
C100     C      0.478890000000     0.947070000000     0.270530000000    -0.0555383  
C101     C      0.496250000000     0.960500000000     0.210210000000     0.0616844  
C102     C      0.464110000000     0.976830000000     0.157800000000    -0.0309839  
C103     C      0.502750000000     0.972380000000     0.283520000000     0.0625178  
C104     C      0.507430000000     0.947300000000     0.343010000000    -0.0750098  
C105     C      0.522090000000     0.992650000000     0.259430000000    -0.0521039  
C106     C      0.519620000000     0.956640000000     0.380340000000     0.171515   
C107     C      0.492830000000     0.017650000000     0.370780000000     0.00406103 
C108     C      0.476280000000     0.940830000000     0.234280000000    -0.0535883  
C109     C      0.989030000000     0.512000000000     0.832200000000    -0.0338642  
C110     C      0.032380000000     0.471310000000     0.648880000000    -0.0308084  
C111     C      0.963090000000     0.473290000000     0.616390000000    -0.00467209 
C112     C      0.027650000000     0.458750000000     0.610770000000    -0.00527075 
C113     C      0.024240000000     0.497780000000     0.721520000000    -0.0554094  
C114     C      0.985200000000     0.453860000000     0.766080000000    -0.0548274  
C115     C      0.003110000000     0.471000000000     0.706760000000     0.061788   
C116     C      0.970500000000     0.486120000000     0.654010000000    -0.03104    
C117     C      0.008140000000     0.479080000000     0.780880000000     0.062523   
C118     C      0.008660000000     0.451650000000     0.839960000000    -0.0747279  
C119     C      0.027230000000     0.501140000000     0.758150000000    -0.0517402  
C120     C      0.021050000000     0.458650000000     0.877830000000     0.171147   
C121     C      0.001030000000     0.522460000000     0.869320000000     0.00418349 
C122     C      0.983360000000     0.449510000000     0.729460000000    -0.0532773  
C123     C      0.974370000000     0.491300000000     0.157490000000    -0.0335375  
C124     C      0.023190000000     0.532660000000     0.339990000000    -0.0307182  
C125     C      0.955670000000     0.528570000000     0.375870000000    -0.00473365 
C126     C      0.019780000000     0.545670000000     0.378070000000    -0.00523022 
C127     C      0.011330000000     0.502960000000     0.268850000000    -0.0555707  
C128     C      0.973090000000     0.547890000000     0.224600000000    -0.0550286  
C129     C      0.991460000000     0.530640000000     0.283700000000     0.0616083  
C130     C      0.961690000000     0.515460000000     0.338090000000    -0.0309345  
C131     C      0.995120000000     0.521950000000     0.209660000000     0.0622431  
C132     C      0.998110000000     0.550220000000     0.151200000000    -0.0752001  
C133     C      0.013640000000     0.499250000000     0.232210000000    -0.0516667  
C134     C      0.011100000000     0.543090000000     0.113610000000     0.171751   
C135     C      0.986350000000     0.480570000000     0.120410000000     0.00381321 
C136     C      0.971900000000     0.552510000000     0.261210000000    -0.0535765  
C137     C      0.335590000000     0.955230000000     0.478200000000    -0.033293   
C138     C      0.150170000000     0.994070000000     0.517840000000    -0.0306227  
C139     C      0.112330000000     0.984720000000     0.451510000000    -0.0045658  
C140     C      0.113630000000     0.010120000000     0.513990000000    -0.00517484 
C141     C      0.220090000000     0.963080000000     0.509940000000    -0.0553267  
C142     C      0.263360000000     0.000330000000     0.463350000000    -0.0554399  
C143     C      0.204910000000     0.985870000000     0.484730000000     0.0613342  
C144     C      0.148800000000     0.969320000000     0.458910000000    -0.0308357  
C145     C      0.278510000000     0.980820000000     0.491150000000     0.0623085  
C146     C      0.331550000000     0.016890000000     0.495360000000    -0.0750872  
C147     C      0.256560000000     0.961250000000     0.513480000000    -0.0519347  
C148     C      0.368260000000     0.016790000000     0.511440000000     0.171466   
C149     C      0.372800000000     0.952030000000     0.493470000000     0.00389459 
C150     C      0.226910000000     0.003340000000     0.460740000000    -0.0531943  
C151     C      0.832150000000     0.005760000000     0.518180000000    -0.0333168  
C152     C      0.652310000000     0.981320000000     0.506520000000    -0.0304908  
C153     C      0.609870000000     0.044200000000     0.493560000000    -0.00444887 
C154     C      0.614850000000     0.982850000000     0.520760000000    -0.00548739 
C155     C      0.723960000000     0.045140000000     0.515470000000    -0.0533437  
C156     C      0.758690000000     0.995900000000     0.472960000000    -0.0545932  
C157     C      0.704570000000     0.018520000000     0.498760000000     0.0621889  
C158     C      0.647410000000     0.039420000000     0.479950000000    -0.0309514  
C159     C      0.778080000000     0.022770000000     0.489850000000     0.0631336  
C160     C      0.831890000000     0.013690000000     0.454800000000    -0.0746665  
C161     C      0.760210000000     0.047470000000     0.510780000000    -0.0519244  
C162     C      0.870800000000     0.024030000000     0.454080000000     0.171629   
C163     C      0.870640000000     0.016540000000     0.521120000000     0.00416001 
C164     C      0.722180000000     0.994480000000     0.476480000000    -0.0548272  
C165     C      0.979360000000     0.846900000000     0.538400000000    -0.0327599  
C166     C      0.015910000000     0.660090000000     0.507660000000    -0.0310248  
C167     C      0.960320000000     0.617710000000     0.539320000000    -0.00526519 
C168     C      0.023990000000     0.622890000000     0.521320000000    -0.00447999 
C169     C      0.961100000000     0.727290000000     0.496880000000    -0.0549238  
C170     C      0.003220000000     0.773200000000     0.536280000000    -0.0557949  
C171     C      0.984100000000     0.713350000000     0.522510000000     0.0610261  
C172     C      0.954830000000     0.655400000000     0.525760000000    -0.0308949  
C173     C      0.978450000000     0.787230000000     0.512430000000     0.0624287  
C174     C      0.994470000000     0.838100000000     0.476850000000    -0.0758149  
C175     C      0.957870000000     0.763820000000     0.492560000000    -0.0526868  
C176     C      0.980970000000     0.874830000000     0.466450000000     0.173489   
C177     C      0.966450000000     0.884520000000     0.531410000000     0.00306858 
C178     C      0.005370000000     0.736720000000     0.541700000000    -0.0532246  
C179     C      0.993530000000     0.157540000000     0.435370000000    -0.0325325  
C180     C      0.021710000000     0.343800000000     0.476890000000    -0.0310384  
C181     C      0.962580000000     0.385310000000     0.451070000000    -0.00536379 
C182     C      0.027360000000     0.382250000000     0.465640000000    -0.00440414 
C183     C      0.971420000000     0.273330000000     0.485610000000    -0.0550875  
C184     C      0.012840000000     0.232490000000     0.440290000000    -0.0556448  
C185     C      0.991890000000     0.290170000000     0.459570000000     0.0611972  
C186     C      0.959730000000     0.346520000000     0.462080000000    -0.0307992  
C187     C      0.990570000000     0.215600000000     0.464770000000     0.0624926  
C188     C      0.011370000000     0.163800000000     0.496180000000    -0.0794862  
C189     C      0.970270000000     0.236480000000     0.487540000000    -0.0524856  
C190     C      0.999410000000     0.126350000000     0.505910000000     0.172039   
C191     C      0.982450000000     0.119020000000     0.440700000000     0.00276824 
C192     C      0.012840000000     0.269340000000     0.437350000000    -0.0531949  
H1       H      0.717690000000     0.466400000000     0.038220000000     0.0404694  
H2       H      0.823550000000     0.559040000000     0.001130000000     0.035622   
H3       H      0.822300000000     0.449910000000     0.975120000000     0.0582223  
H4       H      0.615570000000     0.513730000000     0.951980000000     0.039862   
H5       H      0.872930000000     0.549860000000     0.962180000000     0.0444934  
H6       H      0.666470000000     0.518380000000     0.053230000000     0.0347137  
H7       H      0.670370000000     0.482800000000     0.947140000000     0.0355451  
H8       H      0.602560000000     0.497780000000     0.056440000000     0.0408176  
H9       H      0.887860000000     0.447660000000     0.982160000000     0.00513021 
H10      H      0.781150000000     0.467510000000     0.033040000000     0.0404882  
H11      H      0.889030000000     0.557480000000     0.006120000000     0.0385582  
H12      H      0.709440000000     0.545630000000     0.956630000000     0.0453665  
H13      H      0.838940000000     0.526690000000     0.032450000000     0.0383166  
H14      H      0.606670000000     0.467210000000     0.949800000000     0.0402256  
H15      H      0.658490000000     0.472540000000     0.042730000000     0.0362706  
H16      H      0.659830000000     0.452740000000     0.982460000000     0.0388968  
H17      H      0.773410000000     0.544410000000     0.949200000000     0.0473779  
H18      H      0.838770000000     0.464220000000     0.017430000000     0.0456166  
H19      H      0.610840000000     0.536590000000     0.030810000000     0.0379293  
H20      H      0.896490000000     0.468080000000     0.928040000000     0.148283   
H21      H      0.223140000000     0.533420000000     0.036240000000     0.0453009  
H22      H      0.322730000000     0.491690000000     0.940750000000     0.0363048  
H23      H      0.322930000000     0.458900000000     0.047950000000     0.0591446  
H24      H      0.122560000000     0.547320000000     0.018070000000     0.0390841  
H25      H      0.371580000000     0.451210000000     0.947080000000     0.0459399  
H26      H      0.165260000000     0.443920000000     0.028980000000     0.0368168  
H27      H      0.172420000000     0.543850000000     0.978620000000     0.0352606  
H28      H      0.099610000000     0.445230000000     0.022720000000     0.0430284  
H29      H      0.388410000000     0.463460000000     0.049450000000     0.00555102 
H30      H      0.286470000000     0.525570000000     0.029750000000     0.0411237  
H31      H      0.388490000000     0.495210000000     0.941300000000     0.0382872  
H32      H      0.205410000000     0.447850000000     0.963060000000     0.0428203  
H33      H      0.339450000000     0.520960000000     0.974370000000     0.0383461  
H34      H      0.106850000000     0.546280000000     0.973330000000     0.0411576  
H35      H      0.149870000000     0.448920000000     0.984110000000     0.038408   
H36      H      0.154350000000     0.506640000000     0.955060000000     0.0404509  
H37      H      0.268670000000     0.437800000000     0.959250000000     0.0486817  
H38      H      0.340400000000     0.501670000000     0.036370000000     0.0462586  
H39      H      0.117040000000     0.478060000000     0.051950000000     0.03982    
H40      H      0.395440000000     0.411340000000     0.023420000000     0.149193   
H41      H      0.513710000000     0.712170000000     0.027310000000     0.044319   
H42      H      0.414790000000     0.811940000000     0.997350000000     0.0360299  
H43      H      0.514740000000     0.810760000000     0.947740000000     0.0586997  
H44      H      0.506820000000     0.611480000000     0.039390000000     0.0389112  
H45      H      0.417070000000     0.862470000000     0.957660000000     0.0454142  
H46      H      0.501940000000     0.655370000000     0.935460000000     0.0358179  
H47      H      0.463390000000     0.657910000000     0.040510000000     0.0342181  
H48      H      0.500720000000     0.588680000000     0.936680000000     0.0418206  
H49      H      0.518770000000     0.876270000000     0.953010000000     0.0053531  
H50      H      0.503180000000     0.775670000000     0.021500000000     0.0410988  
H51      H      0.417610000000     0.878130000000     0.002580000000     0.0378239  
H52      H      0.437500000000     0.692010000000     0.945450000000     0.0414549  
H53      H      0.452540000000     0.827040000000     0.021850000000     0.0385475  
H54      H      0.464140000000     0.591610000000     0.042590000000     0.039814   
H55      H      0.459710000000     0.636210000000     0.945680000000     0.0373842  
H56      H      0.437740000000     0.637770000000     0.005930000000     0.0385376  
H57      H      0.429580000000     0.755660000000     0.937330000000     0.0481936  
H58      H      0.511340000000     0.827240000000     0.992290000000     0.0473304  
H59      H      0.532800000000     0.608600000000     0.964920000000     0.0375101  
H60      H      0.482630000000     0.885800000000     0.907820000000     0.145555   
H61      H      0.543540000000     0.203730000000     0.056020000000     0.0444179  
H62      H      0.485130000000     0.311430000000     0.061200000000     0.0369673  
H63      H      0.514550000000     0.304770000000     0.953350000000     0.0569909  
H64      H      0.478590000000     0.102910000000     0.067880000000     0.0361761  
H65      H      0.456350000000     0.360890000000     0.034420000000     0.0421485  
H66      H      0.553450000000     0.149050000000     0.999580000000     0.0346942  
H67      H      0.451080000000     0.155120000000     0.043400000000     0.0359785  
H68      H      0.547980000000     0.083260000000     0.994470000000     0.04019    
H69      H      0.519410000000     0.370790000000     0.950590000000     0.0016763  
H70      H      0.542310000000     0.267830000000     0.048130000000     0.0409447  
H71      H      0.492800000000     0.377640000000     0.059080000000     0.0395476  
H72      H      0.465110000000     0.192220000000     0.974700000000     0.0421773  
H73      H      0.527940000000     0.326340000000     0.047090000000     0.0366836  
H74      H      0.444380000000     0.089480000000     0.038310000000     0.0416295  
H75      H      0.516340000000     0.135740000000     0.973150000000     0.039423   
H76      H      0.456340000000     0.138650000000     0.998910000000     0.0390065  
H77      H      0.461290000000     0.256440000000     0.969300000000     0.0520688  
H78      H      0.544220000000     0.323120000000     0.985440000000     0.0472483  
H79      H      0.546650000000     0.099040000000     0.039300000000     0.0380406  
H80      H      0.462630000000     0.376510000000     0.941920000000     0.153962   
H81      H      0.431910000000     0.971690000000     0.773590000000     0.0456974  
H82      H      0.504960000000     0.961750000000     0.675330000000     0.0371552  
H83      H      0.462230000000     0.064840000000     0.665730000000     0.0505167  
H84      H      0.499250000000     0.954490000000     0.870920000000     0.0365365  
H85      H      0.533700000000     0.986880000000     0.624780000000     0.0447919  
H86      H      0.423460000000     0.029200000000     0.829570000000     0.0351612  
H87      H      0.524590000000     0.983410000000     0.820910000000     0.0360562  
H88      H      0.430030000000     0.030330000000     0.896230000000     0.0391813  
H89      H      0.461140000000     0.057740000000     0.599180000000     0.00099591 
H90      H      0.436410000000     0.977420000000     0.709380000000     0.0421401  
H91      H      0.503100000000     0.954410000000     0.609480000000     0.0403974  
H92      H      0.511120000000     0.052140000000     0.786310000000     0.0415931  
H93      H      0.462050000000     0.967790000000     0.655950000000     0.0382999  
H94      H      0.531050000000     0.985380000000     0.886960000000     0.04181    
H95      H      0.461580000000     0.052910000000     0.844840000000     0.0382503  
H96      H      0.519340000000     0.026640000000     0.840440000000     0.0372946  
H97      H      0.518110000000     0.055300000000     0.722130000000     0.0490064  
H98      H      0.437720000000     0.027160000000     0.650480000000     0.0486153  
H99      H      0.426020000000     0.987140000000     0.877110000000     0.0404568  
H100     H      0.504410000000     0.088710000000     0.620020000000     0.139526   
H101     H      0.458210000000     0.920880000000     0.224770000000     0.0441767  
H102     H      0.480720000000     0.028660000000     0.316290000000     0.0356296  
H103     H      0.525500000000     0.927140000000     0.331700000000     0.0586744  
H104     H      0.441410000000     0.937060000000     0.123860000000     0.0375304  
H105     H      0.517050000000     0.033850000000     0.368270000000     0.0446953  
H106     H      0.544400000000     0.938310000000     0.164270000000     0.0357775  
H107     H      0.440090000000     0.976330000000     0.174530000000     0.034289   
H108     H      0.540940000000     0.945800000000     0.098270000000     0.0416546  
H109     H      0.515500000000     0.932640000000     0.396940000000     0.00511928 
H110     H      0.462460000000     0.931880000000     0.288170000000     0.0407603  
H111     H      0.471840000000     0.034940000000     0.381690000000     0.0379874  
H112     H      0.533140000000     0.004150000000     0.205370000000     0.0417438  
H113     H      0.454840000000     0.993520000000     0.335160000000     0.0378568  
H114     H      0.434920000000     0.981850000000     0.109370000000     0.0408572  
H115     H      0.534180000000     0.982720000000     0.150010000000     0.0382041  
H116     H      0.473420000000     0.004690000000     0.156050000000     0.039226   
H117     H      0.539800000000     0.012920000000     0.268920000000     0.0477341  
H118     H      0.480770000000     0.935410000000     0.344830000000     0.0456753  
H119     H      0.511840000000     0.912920000000     0.115720000000     0.036527   
H120     H      0.564010000000     0.964040000000     0.404190000000     0.148716   
H121     H      0.966190000000     0.429440000000     0.718610000000     0.0446742  
H122     H      0.990460000000     0.535910000000     0.815120000000     0.0358808  
H123     H      0.024770000000     0.430010000000     0.828400000000     0.0589172  
H124     H      0.952990000000     0.445750000000     0.617630000000     0.0382025  
H125     H      0.026760000000     0.536190000000     0.867350000000     0.0445748  
H126     H      0.054290000000     0.456190000000     0.661080000000     0.0359192  
H127     H      0.946270000000     0.482260000000     0.669970000000     0.0346696  
H128     H      0.051570000000     0.465590000000     0.595440000000     0.0415866  
H129     H      0.013780000000     0.434980000000     0.893790000000     0.00499747 
H130     H      0.969030000000     0.437130000000     0.782510000000     0.0416131  
H131     H      0.981770000000     0.541570000000     0.880410000000     0.0388293  
H132     H      0.038840000000     0.515910000000     0.705080000000     0.0415671  
H133     H      0.961210000000     0.502980000000     0.832870000000     0.0396629  
H134     H      0.942200000000     0.490220000000     0.604790000000     0.04068    
H135     H      0.039650000000     0.499790000000     0.648210000000     0.038477   
H136     H      0.976770000000     0.514880000000     0.653750000000     0.0394479  
H137     H      0.044290000000     0.521310000000     0.768980000000     0.0468305  
H138     H      0.980870000000     0.442600000000     0.840970000000     0.0459857  
H139     H      0.025320000000     0.429450000000     0.610880000000     0.0366487  
H140     H      0.065520000000     0.459890000000     0.902650000000     0.149045   
H141     H      0.955600000000     0.573220000000     0.272200000000     0.0444271  
H142     H      0.973800000000     0.467110000000     0.174230000000     0.035343   
H143     H      0.015190000000     0.570640000000     0.163580000000     0.0588824  
H144     H      0.944580000000     0.555730000000     0.374770000000     0.0379043  
H145     H      0.010620000000     0.464400000000     0.122700000000     0.0446144  
H146     H      0.043880000000     0.548440000000     0.326510000000     0.0359621  
H147     H      0.936620000000     0.518270000000     0.323250000000     0.0343725  
H148     H      0.044690000000     0.540140000000     0.392310000000     0.0415401  
H149     H      0.005430000000     0.567340000000     0.097840000000     0.00451608 
H150     H      0.957320000000     0.565080000000     0.208220000000     0.0408146  
H151     H      0.965760000000     0.463600000000     0.108310000000     0.037407   
H152     H      0.025560000000     0.484510000000     0.285270000000     0.0416681  
H153     H      0.947270000000     0.502280000000     0.156460000000     0.0377532  
H154     H      0.935970000000     0.511110000000     0.388710000000     0.0405602  
H155     H      0.031650000000     0.504520000000     0.340710000000     0.0385917  
H156     H      0.968960000000     0.486940000000     0.338430000000     0.0391702  
H157     H      0.029920000000     0.478510000000     0.221250000000     0.0471198  
H158     H      0.970960000000     0.561000000000     0.149700000000     0.0453576  
H159     H      0.016170000000     0.574830000000     0.377620000000     0.0364229  
H160     H      0.056280000000     0.540670000000     0.090120000000     0.149602   
H161     H      0.215710000000     0.020100000000     0.440480000000     0.0441848  
H162     H      0.322710000000     0.928880000000     0.480000000000     0.0355698  
H163     H      0.315210000000     0.036850000000     0.509410000000     0.0587134  
H164     H      0.115320000000     0.008910000000     0.435100000000     0.03945    
H165     H      0.371210000000     0.939230000000     0.519850000000     0.0449365  
H166     H      0.165540000000     0.010670000000     0.536550000000     0.0359599  
H167     H      0.163100000000     0.967170000000     0.433360000000     0.0341121  
H168     H      0.099590000000     0.007190000000     0.539570000000     0.0419234  
H169     H      0.380300000000     0.042890000000     0.505090000000     0.00548219 
H170     H      0.279480000000     0.014550000000     0.444640000000     0.0408458  
H171     H      0.388630000000     0.934580000000     0.476000000000     0.0371099  
H172     H      0.204040000000     0.947920000000     0.527950000000     0.0413453  
H173     H      0.336950000000     0.962840000000     0.449820000000     0.0377975  
H174     H      0.097010000000     0.965200000000     0.435850000000     0.0393237  
H175     H      0.147450000000     0.967110000000     0.529320000000     0.0373854  
H176     H      0.146350000000     0.942270000000     0.470270000000     0.0383022  
H177     H      0.267790000000     0.945280000000     0.534350000000     0.0475662  
H178     H      0.333720000000     0.025030000000     0.467190000000     0.0461554  
H179     H      0.116440000000     0.038930000000     0.508890000000     0.0373984  
H180     H      0.388520000000     0.019980000000     0.558270000000     0.147121   
H181     H      0.708120000000     0.974050000000     0.462410000000     0.041753   
H182     H      0.818970000000     0.012730000000     0.543480000000     0.03662    
H183     H      0.818210000000     0.026670000000     0.432290000000     0.0591903  
H184     H      0.610550000000     0.060810000000     0.517780000000     0.0420721  
H185     H      0.872080000000     0.044560000000     0.529900000000     0.0484001  
H186     H      0.668310000000     0.964440000000     0.524420000000     0.0354839  
H187     H      0.659680000000     0.066030000000     0.477730000000     0.0364134  
H188     H      0.603080000000     0.956040000000     0.518700000000     0.0421227  
H189     H      0.882620000000     0.011040000000     0.430470000000     0.00479256 
H190     H      0.771430000000     0.976000000000     0.457000000000     0.041616   
H191     H      0.883240000000     0.000000000000     0.541850000000     0.0393727  
H192     H      0.710850000000     0.064120000000     0.532340000000     0.0463652  
H193     H      0.830030000000     0.976610000000     0.514540000000     0.0393566  
H194     H      0.594420000000     0.058640000000     0.473230000000     0.0417219  
H195     H      0.651650000000     0.968800000000     0.479930000000     0.0380744  
H196     H      0.647000000000     0.027280000000     0.453150000000     0.0409322  
H197     H      0.774660000000     0.068120000000     0.524220000000     0.0487435  
H198     H      0.829960000000     0.984550000000     0.451180000000     0.0462758  
H199     H      0.615920000000     0.989750000000     0.549290000000     0.039491   
H200     H      0.897810000000     0.066010000000     0.442930000000     0.150923   
H201     H      0.023920000000     0.726490000000     0.560800000000     0.0439275  
H202     H      0.964530000000     0.835910000000     0.561210000000     0.0364765  
H203     H      0.991780000000     0.820220000000     0.453640000000     0.0566477  
H204     H      0.964360000000     0.618850000000     0.568380000000     0.0363213  
H205     H      0.937290000000     0.884170000000     0.530280000000     0.0429473  
H206     H      0.040280000000     0.676170000000     0.509780000000     0.0342983  
H207     H      0.933690000000     0.668090000000     0.541560000000     0.035541   
H208     H      0.044150000000     0.610760000000     0.503890000000     0.0405602  
H209     H      0.999040000000     0.885290000000     0.445750000000     0.00239824 
H210     H      0.020550000000     0.790140000000     0.551240000000     0.0407868  
H211     H      0.974040000000     0.901450000000     0.554150000000     0.0398627  
H212     H      0.945190000000     0.710290000000     0.480460000000     0.0416762  
H213     H      0.007660000000     0.848190000000     0.545570000000     0.0370684  
H214     H      0.936080000000     0.602130000000     0.534440000000     0.0415221  
H215     H      0.008240000000     0.658880000000     0.479290000000     0.0396488  
H216     H      0.946130000000     0.653750000000     0.497760000000     0.0386695  
H217     H      0.939340000000     0.774040000000     0.473420000000     0.0509573  
H218     H      0.022860000000     0.839530000000     0.483740000000     0.0474165  
H219     H      0.035270000000     0.625040000000     0.548320000000     0.0377575  
H220     H      0.941910000000     0.893790000000     0.439660000000     0.152116   
H221     H      0.029500000000     0.281830000000     0.417820000000     0.044099   
H222     H      0.977330000000     0.169080000000     0.413810000000     0.0371708  
H223     H      0.009910000000     0.180670000000     0.520240000000     0.0496982  
H224     H      0.964810000000     0.386500000000     0.421820000000     0.0364316  
H225     H      0.953300000000     0.117710000000     0.440890000000     0.0440416  
H226     H      0.046700000000     0.329200000000     0.472540000000     0.0343655  
H227     H      0.938430000000     0.333840000000     0.446460000000     0.0357968  
H228     H      0.047520000000     0.394200000000     0.483200000000     0.0404127  
H229     H      0.019550000000     0.114680000000     0.523890000000     0.00119138 
H230     H      0.029860000000     0.217530000000     0.423040000000     0.0408409  
H231     H      0.991530000000     0.103370000000     0.417580000000     0.0390212  
H232     H      0.955930000000     0.288310000000     0.504250000000     0.0417061  
H233     H      0.021520000000     0.158010000000     0.426960000000     0.0360474  
H234     H      0.937970000000     0.399170000000     0.458560000000     0.0416008  
H235     H      0.015330000000     0.342600000000     0.505580000000     0.0394287  
H236     H      0.952430000000     0.345700000000     0.490520000000     0.0385003  
H237     H      0.953690000000     0.224020000000     0.507150000000     0.0498207  
H238     H      0.039270000000     0.163420000000     0.487370000000     0.0472788  
H239     H      0.037730000000     0.382620000000     0.438200000000     0.0380453  
H240     H      0.971880000000     0.133930000000     0.548470000000     0.139227   
N1       N      0.893570000000     0.504190000000     0.986810000000    -0.190992   
N2       N      0.819770000000     0.505530000000     0.983880000000    -0.0998606  
N3       N      0.670560000000     0.505770000000     0.998580000000    -0.112712   
N4       N      0.598110000000     0.491670000000     0.000220000000    -0.171696   
N5       N      0.393300000000     0.473310000000     0.993500000000    -0.191468   
N6       N      0.319430000000     0.471740000000     0.993220000000    -0.0995335  
N7       N      0.172190000000     0.495450000000     0.007310000000    -0.112748   
N8       N      0.098490000000     0.499040000000     0.003760000000    -0.171954   
N9       N      0.466400000000     0.881990000000     0.974270000000    -0.192251   
N10      N      0.463380000000     0.807770000000     0.969950000000    -0.0997556  
N11      N      0.486410000000     0.660180000000     0.989310000000    -0.112949   
N12      N      0.490220000000     0.586010000000     0.992560000000    -0.172231   
N13      N      0.497970000000     0.379190000000     0.002380000000    -0.191183   
N14      N      0.495370000000     0.305030000000     0.006250000000    -0.0990146  
N15      N      0.503730000000     0.155560000000     0.024400000000    -0.113246   
N16      N      0.497560000000     0.081500000000     0.020070000000    -0.172576   
N17      N      0.489230000000     0.008900000000     0.599770000000    -0.187013   
N18      N      0.487300000000     0.015190000000     0.673710000000    -0.100122   
N19      N      0.471940000000     0.002330000000     0.822130000000    -0.112649   
N20      N      0.476880000000     0.998990000000     0.896050000000    -0.17232    
N21      N      0.500130000000     0.987460000000     0.394380000000    -0.191484   
N22      N      0.507160000000     0.979250000000     0.320820000000    -0.0997974  
N23      N      0.491360000000     0.953950000000     0.172910000000    -0.113263   
N24      N      0.485890000000     0.959290000000     0.098900000000    -0.172533   
N25      N      0.005070000000     0.491230000000     0.892390000000    -0.190856   
N26      N      0.012070000000     0.484020000000     0.818630000000    -0.0995811  
N27      N      0.999720000000     0.465700000000     0.669020000000    -0.113085   
N28      N      0.995470000000     0.473710000000     0.595030000000    -0.172179   
N29      N      0.993910000000     0.511630000000     0.097980000000    -0.190723   
N30      N      0.999050000000     0.517320000000     0.171910000000    -0.0996429  
N31      N      0.989420000000     0.536640000000     0.321390000000    -0.113238   
N32      N      0.989070000000     0.529570000000     0.395550000000    -0.172269   
N33      N      0.389410000000     0.987070000000     0.497510000000    -0.191344   
N34      N      0.315740000000     0.981520000000     0.498540000000    -0.0996959  
N35      N      0.167590000000     0.992840000000     0.483190000000    -0.112805   
N36      N      0.093780000000     0.994240000000     0.484440000000    -0.172038   
N37      N      0.888980000000     0.013160000000     0.486920000000    -0.190155   
N38      N      0.815990000000     0.024680000000     0.488500000000    -0.0993456  
N39      N      0.667090000000     0.017230000000     0.504810000000    -0.112492   
N40      N      0.593640000000     0.009870000000     0.502340000000    -0.171502   
N41      N      0.979860000000     0.898500000000     0.497520000000    -0.191434   
N42      N      0.973890000000     0.824840000000     0.506840000000    -0.0993198  
N43      N      0.987680000000     0.675780000000     0.528970000000    -0.113107   
N44      N      0.991640000000     0.601550000000     0.523020000000    -0.172455   
N45      N      0.995580000000     0.103790000000     0.474220000000    -0.186567   
N46      N      0.988450000000     0.177540000000     0.468280000000    -0.0993634  
N47      N      0.993320000000     0.328240000000     0.455730000000    -0.11306    
N48      N      0.994010000000     0.402030000000     0.466600000000    -0.172358   
Ni1      Ni     0.990430000000     0.997350000000     0.454500000000     0.995011   
Ni2      Ni     0.991780000000     0.004430000000     0.516950000000     1.00605    
Ni3      Ni     0.961330000000     0.501050000000     0.496110000000     0.997467   
Ni4      Ni     0.023760000000     0.502270000000     0.494430000000     0.997715   
Ni5      Ni     0.488110000000     0.029050000000     0.493490000000     1.00224    
Ni6      Ni     0.495120000000     0.966920000000     0.500360000000     1.00129    
Ni7      Ni     0.512570000000     0.977110000000     0.995320000000     1.00512    
Ni8      Ni     0.450920000000     0.986040000000     0.000400000000     0.996367   
Ni9      Ni     0.995030000000     0.470280000000     0.998190000000     0.996408   
Ni10     Ni     0.997120000000     0.532710000000     0.991880000000     0.997691   
Ni11     Ni     0.494270000000     0.484050000000     0.028600000000     0.999196   
Ni12     Ni     0.496970000000     0.481210000000     0.965890000000     0.9996     
O1       O      0.994160000000     0.047770000000     0.450830000000    -0.45226    
O2       O      0.986420000000     0.947440000000     0.462320000000    -0.453842   
O3       O      0.940410000000     0.002400000000     0.457140000000    -0.452837   
O4       O      0.040600000000     0.993010000000     0.455970000000    -0.449261   
O5       O      0.041750000000     0.000240000000     0.514250000000    -0.452402   
O6       O      0.941760000000     0.008500000000     0.515550000000    -0.45029    
O7       O      0.987030000000     0.954130000000     0.520660000000    -0.452909   
O8       O      0.996030000000     0.054280000000     0.509180000000    -0.445408   
O9       O      0.961770000000     0.514440000000     0.447350000000    -0.451056   
O10      O      0.964910000000     0.487730000000     0.544780000000    -0.450823   
O11      O      0.962860000000     0.549820000000     0.510000000000    -0.449711   
O12      O      0.964010000000     0.452380000000     0.482050000000    -0.44964    
O13      O      0.022340000000     0.453460000000     0.481140000000    -0.451165   
O14      O      0.021150000000     0.551010000000     0.507780000000    -0.451393   
O15      O      0.023230000000     0.488340000000     0.543180000000    -0.449228   
O16      O      0.020080000000     0.516110000000     0.445800000000    -0.449505   
O17      O      0.489320000000     0.021430000000     0.443410000000    -0.4512     
O18      O      0.487040000000     0.032480000000     0.544000000000    -0.446318   
O19      O      0.538370000000     0.032520000000     0.493950000000    -0.448039   
O20      O      0.438610000000     0.021520000000     0.493880000000    -0.456369   
O21      O      0.444860000000     0.963150000000     0.496980000000    -0.449477   
O22      O      0.544580000000     0.974850000000     0.503520000000    -0.451825   
O23      O      0.491770000000     0.974200000000     0.550220000000    -0.453872   
O24      O      0.499000000000     0.963850000000     0.450100000000    -0.455735   
O25      O      0.512690000000     0.966400000000     0.044940000000    -0.450687   
O26      O      0.508240000000     0.987570000000     0.946270000000    -0.454321   
O27      O      0.518240000000     0.026470000000     0.005470000000    -0.451239   
O28      O      0.502920000000     0.928780000000     0.984640000000    -0.456577   
O29      O      0.445310000000     0.936560000000     0.990170000000    -0.449441   
O30      O      0.460680000000     0.034530000000     0.010950000000    -0.45103    
O31      O      0.450730000000     0.996600000000     0.950700000000    -0.448526   
O32      O      0.455180000000     0.975210000000     0.049440000000    -0.45262    
O33      O      0.989360000000     0.477590000000     0.048000000000    -0.449585   
O34      O      0.001210000000     0.467230000000     0.947980000000    -0.452696   
O35      O      0.044930000000     0.471380000000     0.004230000000    -0.45012    
O36      O      0.945250000000     0.473430000000     0.991790000000    -0.453438   
O37      O      0.946810000000     0.532180000000     0.991430000000    -0.450758   
O38      O      0.047290000000     0.528990000000     0.992790000000    -0.450089   
O39      O      0.997620000000     0.525560000000     0.941780000000    -0.450433   
O40      O      0.996850000000     0.535620000000     0.042390000000    -0.45368    
O41      O      0.498290000000     0.433640000000     0.029010000000    -0.453617   
O42      O      0.489620000000     0.534260000000     0.024080000000    -0.451281   
O43      O      0.444500000000     0.478890000000     0.024710000000    -0.454318   
O44      O      0.544550000000     0.488930000000     0.028230000000    -0.448313   
O45      O      0.546870000000     0.483210000000     0.969830000000    -0.452302   
O46      O      0.446630000000     0.479440000000     0.966020000000    -0.451468   
O47      O      0.495250000000     0.531860000000     0.965680000000    -0.450569   
O48      O      0.498920000000     0.430730000000     0.970360000000    -0.453786   
O49      O      0.872620000000     0.473650000000     0.936960000000    -0.281331   
O50      O      0.371630000000     0.421290000000     0.019630000000    -0.279685   
O51      O      0.480780000000     0.861460000000     0.917470000000    -0.281195   
O52      O      0.467970000000     0.353980000000     0.954200000000    -0.281447   
O53      O      0.511580000000     0.063520000000     0.618440000000    -0.272426   
O54      O      0.555590000000     0.964590000000     0.379380000000    -0.281334   
O55      O      0.057720000000     0.462240000000     0.877750000000    -0.281221   
O56      O      0.047530000000     0.537610000000     0.114620000000    -0.281327   
O57      O      0.365310000000     0.013520000000     0.548250000000    -0.281242   
O58      O      0.873330000000     0.060860000000     0.450270000000    -0.278836   
O59      O      0.947080000000     0.871400000000     0.452300000000    -0.282428   
O60      O      0.966940000000     0.127980000000     0.523420000000    -0.269758   


