data_structure

_audit_creation_method RASPA-1.0
_audit_creation_date 2023-5-25
_audit_author_name 'Poobodin Mano'

_cell_length_a    37.8242
_cell_length_b    37.7989
_cell_length_c    37.6914
_cell_angle_alpha 90
_cell_angle_beta  90
_cell_angle_gamma 90
_cell_volume      53887.9

_symmetry_cell_setting          triclinic
_symmetry_space_group_name_Hall 'P 1'
_symmetry_space_group_name_H-M  'P 1'
_symmetry_Int_Tables_number     1

_symmetry_equiv_pos_as_xyz 'x,y,z'

loop_
_atom_site_label
_atom_site_type_symbol
_atom_site_fract_x
_atom_site_fract_y
_atom_site_fract_z
_atom_site_charge
C1       C      0.049960000000     0.981820000000     0.493000000000     0.428458   
C2       C      0.918390000000     0.007180000000     0.508380000000     0.457538   
C3       C      0.971590000000     0.927800000000     0.501710000000     0.450067   
C4       C      0.995760000000     0.060660000000     0.499750000000     0.451998   
C5       C      0.995810000000     0.484800000000     0.558380000000     0.446082   
C6       C      0.012950000000     0.502650000000     0.425150000000     0.447335   
C7       C      0.014500000000     0.427840000000     0.483480000000     0.434324   
C8       C      0.994110000000     0.560290000000     0.499890000000     0.428306   
C9       C      0.551590000000     0.993000000000     0.507980000000     0.42983    
C10      C      0.419020000000     0.978470000000     0.487720000000     0.454464   
C11      C      0.494260000000     0.989550000000     0.430320000000     0.451017   
C12      C      0.475860000000     0.981660000000     0.564340000000     0.431206   
C13      C      0.518830000000     0.012110000000     0.063190000000     0.433422   
C14      C      0.500060000000     0.980730000000     0.932790000000     0.45013    
C15      C      0.515360000000     0.061560000000     0.981180000000     0.447238   
C16      C      0.503660000000     0.931060000000     0.014510000000     0.450847   
C17      C      0.012430000000     0.508070000000     0.055450000000     0.42999    
C18      C      0.975880000000     0.503990000000     0.925110000000     0.427749   
C19      C      0.059220000000     0.502640000000     0.972650000000     0.427187   
C20      C      0.928940000000     0.509540000000     0.008080000000     0.443999   
C21      C      0.503230000000     0.430780000000     0.991470000000     0.429211   
C22      C      0.483340000000     0.564130000000     0.002120000000     0.427129   
C23      C      0.427100000000     0.487840000000     0.989860000000     0.44442    
C24      C      0.560230000000     0.507110000000     0.003810000000     0.427164   
C25      C      0.837150000000     0.479160000000     0.024280000000    -0.0336444  
C26      C      0.651220000000     0.498090000000     0.039810000000    -0.0309043  
C27      C      0.616090000000     0.529720000000     0.978650000000    -0.005613   
C28      C      0.612450000000     0.509340000000     0.042920000000    -0.00466125 
C29      C      0.727160000000     0.494340000000     0.996590000000    -0.0536729  
C30      C      0.762260000000     0.536870000000     0.045980000000    -0.0509078  
C31      C      0.707620000000     0.518440000000     0.017380000000     0.0621363  
C32      C      0.654940000000     0.518350000000     0.978950000000    -0.030564   
C33      C      0.781960000000     0.513700000000     0.024710000000     0.0654286  
C34      C      0.836530000000     0.540290000000     0.004600000000    -0.111785   
C35      C      0.764040000000     0.492780000000     0.999460000000    -0.0553878  
C36      C      0.875140000000     0.545780000000     0.015450000000     0.326114   
C37      C      0.876170000000     0.481520000000     0.035020000000     0.0106248  
C38      C      0.725610000000     0.539430000000     0.042150000000    -0.0509648  
C39      C      0.339490000000     0.483530000000     0.945790000000    -0.0339443  
C40      C      0.153760000000     0.523260000000     0.978990000000    -0.0310971  
C41      C      0.109300000000     0.468730000000     0.947380000000    -0.0054726  
C42      C      0.116770000000     0.532760000000     0.965450000000    -0.00480831 
C43      C      0.219750000000     0.464860000000     0.987640000000    -0.0525527  
C44      C      0.266170000000     0.508380000000     0.949800000000    -0.0551365  
C45      C      0.205990000000     0.489670000000     0.963320000000     0.0621662  
C46      C      0.146920000000     0.461980000000     0.960760000000    -0.0308219  
C47      C      0.279970000000     0.481950000000     0.972300000000     0.0655402  
C48      C      0.331340000000     0.495270000000     0.008520000000    -0.111666   
C49      C      0.256300000000     0.460660000000     0.991390000000    -0.0506805  
C50      C      0.368320000000     0.481310000000     0.017560000000     0.326201   
C51      C      0.377130000000     0.469930000000     0.951720000000     0.010991   
C52      C      0.229660000000     0.511540000000     0.944870000000    -0.0511722  
C53      C      0.519270000000     0.835270000000     0.007360000000    -0.0355225  
C54      C      0.472560000000     0.651960000000     0.044580000000    -0.0305768  
C55      C      0.480980000000     0.622780000000     0.973460000000    -0.00456396 
C56      C      0.459800000000     0.614340000000     0.036800000000    -0.00560836 
C57      C      0.502000000000     0.724320000000     0.041320000000    -0.0538956  
C58      C      0.460680000000     0.771740000000     0.002260000000    -0.0533525  
C59      C      0.475900000000     0.711180000000     0.018100000000     0.0632076  
C60      C      0.493580000000     0.659740000000     0.984250000000    -0.0310053  
C61      C      0.485360000000     0.784890000000     0.027000000000     0.0656562  
C62      C      0.460130000000     0.844860000000     0.030480000000    -0.111001   
C63      C      0.506060000000     0.760760000000     0.046150000000    -0.0491367  
C64      C      0.469210000000     0.882630000000     0.042200000000     0.326039   
C65      C      0.531290000000     0.872090000000     0.019060000000     0.0134739  
C66      C      0.455630000000     0.735290000000     0.998470000000    -0.0510503  
C67      C      0.547100000000     0.152840000000     0.987700000000    -0.0347054  
C68      C      0.513790000000     0.340830000000     0.950460000000    -0.0298173  
C69      C      0.509340000000     0.373010000000     0.020780000000    -0.00499976 
C70      C      0.498200000000     0.378010000000     0.953900000000    -0.00541556 
C71      C      0.537790000000     0.267700000000     0.956610000000    -0.0533725  
C72      C      0.496340000000     0.223430000000     0.999070000000    -0.053357   
C73      C      0.513150000000     0.282750000000     0.980330000000     0.0636793  
C74      C      0.525600000000     0.336680000000     0.013280000000    -0.0297679  
C75      C      0.518510000000     0.208440000000     0.973020000000     0.0652951  
C76      C      0.485460000000     0.152710000000     0.969010000000    -0.111108   
C77      C      0.539810000000     0.230950000000     0.952600000000    -0.0487809  
C78      C      0.488360000000     0.114970000000     0.954870000000     0.325478   
C79      C      0.552480000000     0.114980000000     0.973930000000     0.0123381  
C80      C      0.493160000000     0.260140000000     0.001970000000    -0.0504643  
C81      C      0.521490000000     0.967510000000     0.837830000000    -0.0349499  
C82      C      0.487490000000     0.949480000000     0.656110000000    -0.0307344  
C83      C      0.454230000000     0.008950000000     0.619870000000    -0.00646747 
C84      C      0.474240000000     0.944750000000     0.618140000000    -0.00435752 
C85      C      0.495470000000     0.995220000000     0.729940000000    -0.0523388  
C86      C      0.456840000000     0.945510000000     0.768810000000    -0.0506294  
C87      C      0.470210000000     0.973950000000     0.712550000000     0.0635424  
C88      C      0.467270000000     0.010300000000     0.658320000000    -0.0295988  
C89      C      0.481520000000     0.966920000000     0.786340000000     0.0667291  
C90      C      0.460150000000     0.985430000000     0.843820000000    -0.113951   
C91      C      0.500280000000     0.992490000000     0.766640000000    -0.0541938  
C92      C      0.458850000000     0.973650000000     0.882610000000     0.329149   
C93      C      0.523390000000     0.955980000000     0.876720000000     0.0133254  
C94      C      0.451020000000     0.949220000000     0.732440000000    -0.0501447  
C95      C      0.523700000000     0.969740000000     0.337820000000    -0.0356124  
C96      C      0.491220000000     0.026600000000     0.154410000000    -0.0320268  
C97      C      0.556770000000     0.011440000000     0.116700000000    -0.00153725 
C98      C      0.497510000000     0.042010000000     0.117520000000    -0.00254712 
C99      C      0.497460000000     0.985730000000     0.221190000000    -0.0539356  
C100     C      0.536420000000     0.023940000000     0.271270000000    -0.0531541  
C101     C      0.521180000000     0.012110000000     0.209750000000     0.0651841  
C102     C      0.548360000000     0.996570000000     0.153610000000    -0.0329679  
C103     C      0.510150000000     0.000080000000     0.282750000000     0.0656384  
C104     C      0.499320000000     0.028930000000     0.339810000000    -0.111972   
C105     C      0.491610000000     0.980340000000     0.257390000000    -0.04674    
C106     C      0.481650000000     0.022500000000     0.375640000000     0.325716   
C107     C      0.506960000000     0.959870000000     0.373510000000     0.0120118  
C108     C      0.541320000000     0.030290000000     0.235070000000    -0.051792   
C109     C      0.949920000000     0.474200000000     0.645020000000    -0.0339602  
C110     C      0.981650000000     0.523330000000     0.830160000000    -0.0311268  
C111     C      0.946250000000     0.472290000000     0.875930000000    -0.00523619 
C112     C      0.969560000000     0.534350000000     0.867340000000    -0.00468826 
C113     C      0.990230000000     0.466350000000     0.766440000000    -0.0530657  
C114     C      0.949240000000     0.504100000000     0.717640000000    -0.0556126  
C115     C      0.963790000000     0.489550000000     0.778830000000     0.0622618  
C116     C      0.958610000000     0.463740000000     0.838280000000    -0.0308499  
C117     C      0.974270000000     0.479350000000     0.705280000000     0.0657605  
C118     C      0.008520000000     0.498370000000     0.654660000000    -0.112406   
C119     C      0.994810000000     0.460890000000     0.730080000000    -0.0507337  
C120     C      0.021490000000     0.485610000000     0.618440000000     0.326832   
C121     C      0.959640000000     0.461380000000     0.607710000000     0.0109112  
C122     C      0.943700000000     0.508540000000     0.754040000000    -0.051646   
C123     C      0.056950000000     0.508880000000     0.335510000000    -0.034794   
C124     C      0.011690000000     0.535580000000     0.149010000000    -0.0310709  
C125     C      0.041740000000     0.478840000000     0.106180000000    -0.00472429 
C126     C      0.021720000000     0.542620000000     0.110280000000    -0.00403401 
C127     C      0.008200000000     0.483170000000     0.219000000000    -0.051707   
C128     C      0.050400000000     0.527940000000     0.260210000000    -0.0549942  
C129     C      0.032190000000     0.506250000000     0.202160000000     0.062819   
C130     C      0.031600000000     0.474550000000     0.145190000000    -0.0309196  
C131     C      0.028040000000     0.503240000000     0.277030000000     0.066699   
C132     C      0.994570000000     0.520310000000     0.329100000000    -0.113833   
C133     C      0.006870000000     0.481210000000     0.255960000000    -0.0504275  
C134     C      0.985940000000     0.506600000000     0.366210000000     0.327287   
C135     C      0.052770000000     0.496720000000     0.374080000000     0.010551   
C136     C      0.052870000000     0.528800000000     0.223190000000    -0.0509595  
C137     C      0.327690000000     0.937890000000     0.481210000000    -0.0351855  
C138     C      0.143440000000     0.955540000000     0.513220000000    -0.0305944  
C139     C      0.102400000000     0.985570000000     0.454930000000    -0.00524358 
C140     C      0.106600000000     0.969470000000     0.521500000000    -0.00363938 
C141     C      0.215410000000     0.951830000000     0.462330000000    -0.0525163  
C142     C      0.253200000000     0.993260000000     0.510650000000    -0.0513349  
C143     C      0.197180000000     0.975280000000     0.484970000000     0.0629889  
C144     C      0.140830000000     0.972970000000     0.451840000000    -0.03021    
C145     C      0.271590000000     0.970730000000     0.487660000000     0.0680316  
C146     C      0.324570000000     0.000000000000     0.467260000000    -0.114788   
C147     C      0.252400000000     0.950350000000     0.462950000000    -0.0552397  
C148     C      0.361850000000     0.007540000000     0.480400000000     0.329459   
C149     C      0.366690000000     0.940330000000     0.492210000000     0.0120244  
C150     C      0.216520000000     0.995830000000     0.509020000000    -0.0498514  
C151     C      0.828270000000     0.000350000000     0.543960000000    -0.0352554  
C152     C      0.645820000000     0.968640000000     0.520310000000    -0.0309991  
C153     C      0.602790000000     0.032500000000     0.515550000000    -0.00398742 
C154     C      0.606850000000     0.967100000000     0.530800000000    -0.00499051 
C155     C      0.715330000000     0.031520000000     0.546200000000    -0.051032   
C156     C      0.754590000000     0.991910000000     0.497570000000    -0.0533862  
C157     C      0.697940000000     0.007260000000     0.524150000000     0.0633774  
C158     C      0.641750000000     0.030810000000     0.504870000000    -0.0311139  
C159     C      0.771830000000     0.017040000000     0.519140000000     0.0672717  
C160     C      0.825470000000     0.019670000000     0.482490000000    -0.111855   
C161     C      0.751780000000     0.036630000000     0.543460000000    -0.0493711  
C162     C      0.863720000000     0.032590000000     0.483330000000     0.327981   
C163     C      0.866510000000     0.013060000000     0.547610000000     0.0146112  
C164     C      0.717920000000     0.987920000000     0.499220000000    -0.0522873  
C165     C      0.979240000000     0.834950000000     0.530480000000    -0.0352473  
C166     C      0.013720000000     0.656280000000     0.510070000000    -0.0303993  
C167     C      0.952490000000     0.610320000000     0.500540000000    -0.0043278  
C168     C      0.015950000000     0.617670000000     0.522010000000    -0.00550306 
C169     C      0.946830000000     0.723430000000     0.529440000000    -0.0523305  
C170     C      0.987570000000     0.763520000000     0.482420000000    -0.0538759  
C171     C      0.972630000000     0.706620000000     0.508810000000     0.0629557  
C172     C      0.953760000000     0.648930000000     0.488610000000    -0.0309056  
C173     C      0.961440000000     0.780280000000     0.503160000000     0.0653066  
C174     C      0.960350000000     0.835840000000     0.469000000000    -0.110477   
C175     C      0.941080000000     0.759760000000     0.526410000000    -0.0498335  
C176     C      0.948240000000     0.874460000000     0.471720000000     0.324787   
C177     C      0.966870000000     0.872890000000     0.536520000000     0.0119571  
C178     C      0.992350000000     0.726890000000     0.484420000000    -0.0539482  
C179     C      0.002580000000     0.152790000000     0.464780000000    -0.0325812  
C180     C      0.045830000000     0.338310000000     0.503810000000    -0.0308934  
C181     C      0.995150000000     0.371800000000     0.456140000000    -0.00563358 
C182     C      0.053210000000     0.375460000000     0.489230000000    -0.00388794 
C183     C      0.998160000000     0.268490000000     0.512410000000    -0.0519069  
C184     C      0.039650000000     0.220650000000     0.474080000000    -0.054551   
C185     C      0.022240000000     0.281180000000     0.486890000000     0.0643549  
C186     C      0.990110000000     0.334850000000     0.471550000000    -0.0298686  
C187     C      0.012890000000     0.207930000000     0.496740000000     0.0676257  
C188     C      0.026700000000     0.151430000000     0.524240000000    -0.111833   
C189     C      0.993160000000     0.232140000000     0.516720000000    -0.0485188  
C190     C      0.009780000000     0.115430000000     0.532240000000     0.327442   
C191     C      0.984960000000     0.116790000000     0.469090000000     0.00872725 
C192     C      0.043730000000     0.257010000000     0.468770000000    -0.0503392  
F1       F      0.876270000000     0.562080000000     0.048340000000    -0.435378   
F2       F      0.365580000000     0.446850000000     0.029730000000    -0.43455    
F3       F      0.475970000000     0.882650000000     0.078310000000    -0.436722   
F4       F      0.493850000000     0.116190000000     0.918570000000    -0.436912   
F5       F      0.443600000000     0.940400000000     0.884600000000    -0.43527    
F6       F      0.445880000000     0.016690000000     0.370370000000    -0.435103   
F7       F      0.040120000000     0.454360000000     0.622680000000    -0.435224   
F8       F      0.971450000000     0.473050000000     0.363450000000    -0.434278   
F9       F      0.359920000000     0.024300000000     0.513040000000    -0.432455   
F10      F      0.863950000000     0.068860000000     0.488490000000    -0.430203   
F11      F      0.911820000000     0.875290000000     0.475330000000    -0.436601   
F12      F      0.979980000000     0.120510000000     0.552970000000    -0.425987   
H1       H      0.711060000000     0.557820000000     0.058650000000     0.0490796  
H2       H      0.823810000000     0.459400000000     0.041600000000     0.0402665  
H3       H      0.822620000000     0.566170000000     0.006710000000     0.0814061  
H4       H      0.614870000000     0.558920000000     0.982090000000     0.0389195  
H5       H      0.877610000000     0.485410000000     0.064220000000     0.0576204  
H6       H      0.663350000000     0.499720000000     0.066680000000     0.0378582  
H7       H      0.669880000000     0.535470000000     0.960180000000     0.0369503  
H8       H      0.598340000000     0.489620000000     0.059640000000     0.0428672  
H9       H      0.887520000000     0.563890000000     0.995800000000    -0.0041638  
H10      H      0.775540000000     0.553490000000     0.065220000000     0.0618092  
H11      H      0.889180000000     0.455870000000     0.028900000000     0.0404907  
H12      H      0.714280000000     0.477140000000     0.977690000000     0.0419404  
H13      H      0.835820000000     0.469670000000     0.996360000000     0.0373949  
H14      H      0.604730000000     0.523540000000     0.952160000000     0.0431508  
H15      H      0.652910000000     0.470100000000     0.030690000000     0.0407786  
H16      H      0.656510000000     0.490520000000     0.969430000000     0.0386446  
H17      H      0.778230000000     0.475100000000     0.982000000000     0.0421976  
H18      H      0.835140000000     0.531510000000     0.976410000000     0.0553682  
H19      H      0.611180000000     0.535280000000     0.056770000000     0.0414663  
H20      H      0.219650000000     0.531390000000     0.926740000000     0.0462647  
H21      H      0.328210000000     0.469940000000     0.922170000000     0.0408562  
H22      H      0.313920000000     0.490880000000     0.031910000000     0.0809382  
H23      H      0.110330000000     0.472480000000     0.918140000000     0.039227   
H24      H      0.376520000000     0.440520000000     0.951660000000     0.0567278  
H25      H      0.170630000000     0.547300000000     0.976950000000     0.036702   
H26      H      0.158790000000     0.440240000000     0.944800000000     0.0389076  
H27      H      0.105410000000     0.553360000000     0.983160000000     0.0432941  
H28      H      0.379270000000     0.497800000000     0.039400000000    -0.00514021 
H29      H      0.283260000000     0.526280000000     0.935480000000     0.0430474  
H30      H      0.393840000000     0.478360000000     0.928980000000     0.0403469  
H31      H      0.202630000000     0.448260000000     0.003420000000     0.0449019  
H32      H      0.340950000000     0.512410000000     0.940170000000     0.0381321  
H33      H      0.092930000000     0.444870000000     0.952630000000     0.0440961  
H34      H      0.152400000000     0.515420000000     0.007460000000     0.0417113  
H35      H      0.145230000000     0.453280000000     0.988920000000     0.0403951  
H36      H      0.266320000000     0.440800000000     0.009510000000     0.0614933  
H37      H      0.332510000000     0.524280000000     0.003420000000     0.0556247  
H38      H      0.119220000000     0.544280000000     0.938410000000     0.0402492  
H39      H      0.436170000000     0.725690000000     0.979720000000     0.0482658  
H40      H      0.542720000000     0.817460000000     0.007760000000     0.0397975  
H41      H      0.439350000000     0.834090000000     0.048370000000     0.0856379  
H42      H      0.454930000000     0.625200000000     0.959990000000     0.0403488  
H43      H      0.545210000000     0.869760000000     0.044940000000     0.0578797  
H44      H      0.455640000000     0.663480000000     0.065800000000     0.0394331  
H45      H      0.492590000000     0.677050000000     0.960360000000     0.0370298  
H46      H      0.464520000000     0.597690000000     0.060640000000     0.0451961  
H47      H      0.445690000000     0.899620000000     0.037500000000     0.00181334 
H48      H      0.445160000000     0.789340000000     0.985890000000     0.0471567  
H49      H      0.550590000000     0.882190000000     0.999230000000     0.0413454  
H50      H      0.519190000000     0.706710000000     0.055890000000     0.0443457  
H51      H      0.509060000000     0.836320000000     0.979650000000     0.0448637  
H52      H      0.500110000000     0.611660000000     0.954020000000     0.0419977  
H53      H      0.500200000000     0.650350000000     0.054590000000     0.040233   
H54      H      0.521530000000     0.658510000000     0.993530000000     0.0407228  
H55      H      0.525930000000     0.770350000000     0.064480000000     0.0534613  
H56      H      0.449190000000     0.846150000000     0.003100000000     0.0608668  
H57      H      0.430760000000     0.615120000000     0.032240000000     0.0394884  
H58      H      0.474730000000     0.271120000000     0.021010000000     0.0497109  
H59      H      0.572760000000     0.167120000000     0.985630000000     0.0392446  
H60      H      0.465170000000     0.167160000000     0.953280000000     0.0848697  
H61      H      0.482430000000     0.369200000000     0.032070000000     0.0508182  
H62      H      0.564450000000     0.116280000000     0.947010000000     0.0605072  
H63      H      0.501160000000     0.327580000000     0.927330000000     0.0399079  
H64      H      0.522570000000     0.320170000000     0.037540000000     0.0374617  
H65      H      0.507890000000     0.394290000000     0.931320000000     0.0441976  
H66      H      0.462760000000     0.101320000000     0.959550000000    -0.000788979
H67      H      0.480570000000     0.207090000000     0.016460000000     0.0446424  
H68      H      0.571360000000     0.101050000000     0.991730000000     0.0388111  
H69      H      0.554710000000     0.284010000000     0.940280000000     0.0439406  
H70      H      0.539230000000     0.152160000000     0.016180000000     0.0399633  
H71      H      0.525580000000     0.386610000000     0.041270000000     0.0431243  
H72      H      0.542660000000     0.343210000000     0.945160000000     0.038469   
H73      H      0.554410000000     0.339400000000     0.007730000000     0.0399757  
H74      H      0.557760000000     0.219910000000     0.933140000000     0.0534859  
H75      H      0.476410000000     0.151270000000     0.997070000000     0.0557281  
H76      H      0.468970000000     0.376190000000     0.951230000000     0.0454692  
H77      H      0.431800000000     0.932340000000     0.719500000000     0.050185   
H78      H      0.540220000000     0.951080000000     0.822120000000     0.0408053  
H79      H      0.433080000000     0.982910000000     0.832480000000     0.0854197  
H80      H      0.425060000000     0.005290000000     0.620060000000     0.0512537  
H81      H      0.520500000000     0.926720000000     0.877890000000     0.0556208  
H82      H      0.486590000000     0.923200000000     0.669440000000     0.0375847  
H83      H      0.450740000000     0.029540000000     0.673300000000     0.0419715  
H84      H      0.492970000000     0.927060000000     0.603900000000     0.0429515  
H85      H      0.441610000000     0.992490000000     0.897260000000     0.00235878 
H86      H      0.441820000000     0.926050000000     0.783570000000     0.0622308  
H87      H      0.550030000000     0.962590000000     0.887270000000     0.0421171  
H88      H      0.511360000000     0.014130000000     0.715520000000     0.0444462  
H89      H      0.530020000000     0.995650000000     0.836180000000     0.044138   
H90      H      0.459750000000     0.034870000000     0.607070000000     0.051668   
H91      H      0.515480000000     0.958670000000     0.655930000000     0.0409719  
H92      H      0.495070000000     0.019950000000     0.658240000000     0.0403846  
H93      H      0.518940000000     0.010110000000     0.779250000000     0.0469232  
H94      H      0.468050000000     0.013790000000     0.842190000000     0.0674226  
H95      H      0.448060000000     0.931390000000     0.618850000000     0.0434876  
H96      H      0.560460000000     0.049880000000     0.226660000000     0.0479048  
H97      H      0.526170000000     0.945230000000     0.321620000000     0.0407357  
H98      H      0.483640000000     0.048970000000     0.324940000000     0.0857411  
H99      H      0.573050000000     0.035730000000     0.119840000000     0.0393723  
H100     H      0.482840000000     0.943800000000     0.368480000000     0.056844   
H101     H      0.474300000000     0.045260000000     0.169690000000     0.0417622  
H102     H      0.573680000000     0.993010000000     0.168230000000     0.0397916  
H103     H      0.471820000000     0.044010000000     0.103340000000     0.046791   
H104     H      0.484430000000     0.047040000000     0.391670000000    -0.00106798 
H105     H      0.552300000000     0.038560000000     0.290080000000     0.0437979  
H106     H      0.525860000000     0.943040000000     0.388570000000     0.0381677  
H107     H      0.482650000000     0.970060000000     0.202350000000     0.0517618  
H108     H      0.550740000000     0.980640000000     0.342100000000     0.0396705  
H109     H      0.572650000000     0.991590000000     0.101860000000     0.0462021  
H110     H      0.476730000000     0.001170000000     0.151340000000     0.0497712  
H111     H      0.535440000000     0.970210000000     0.150970000000     0.0518977  
H112     H      0.472080000000     0.961130000000     0.265780000000     0.0567225  
H113     H      0.526200000000     0.039950000000     0.344580000000     0.0547869  
H114     H      0.508030000000     0.069310000000     0.120620000000     0.0379229  
H115     H      0.923980000000     0.527260000000     0.763080000000     0.0462529  
H116     H      0.929250000000     0.456370000000     0.656060000000     0.0411005  
H117     H      0.031570000000     0.499220000000     0.673030000000     0.0812498  
H118     H      0.917620000000     0.478900000000     0.874980000000     0.0378393  
H119     H      0.965030000000     0.432490000000     0.608920000000     0.0570303  
H120     H      0.981070000000     0.547170000000     0.812810000000     0.0370528  
H121     H      0.940800000000     0.443250000000     0.826870000000     0.0383208  
H122     H      0.988940000000     0.553640000000     0.878220000000     0.0433933  
H123     H      0.039980000000     0.505890000000     0.607790000000    -0.00480101 
H124     H      0.933860000000     0.519950000000     0.699440000000     0.0428741  
H125     H      0.936460000000     0.465240000000     0.590000000000     0.0412659  
H126     H      0.007330000000     0.452340000000     0.784610000000     0.0450823  
H127     H      0.938660000000     0.501310000000     0.642750000000     0.0378752  
H128     H      0.949220000000     0.448280000000     0.892690000000     0.0435959  
H129     H      0.009380000000     0.513440000000     0.831250000000     0.0416919  
H130     H      0.985790000000     0.452620000000     0.839970000000     0.0407382  
H131     H      0.014950000000     0.442610000000     0.721070000000     0.061877   
H132     H      0.997740000000     0.525720000000     0.652390000000     0.0552751  
H133     H      0.943540000000     0.547870000000     0.865150000000     0.0401016  
H134     H      0.070780000000     0.547390000000     0.210740000000     0.046854   
H135     H      0.080230000000     0.495150000000     0.323820000000     0.0406466  
H136     H      0.970810000000     0.516530000000     0.312070000000     0.0829758  
H137     H      0.070700000000     0.483680000000     0.104610000000     0.0386421  
H138     H      0.056720000000     0.467580000000     0.375180000000     0.0516194  
H139     H      0.014250000000     0.560870000000     0.163910000000     0.0399768  
H140     H      0.049140000000     0.454280000000     0.157370000000     0.038931   
H141     H      0.002280000000     0.561490000000     0.098780000000     0.0509319  
H142     H      0.965570000000     0.524260000000     0.378080000000    -0.00630225 
H143     H      0.066340000000     0.546250000000     0.275350000000     0.0432883  
H144     H      0.074190000000     0.508860000000     0.390210000000     0.0395298  
H145     H      0.990720000000     0.466270000000     0.203930000000     0.0461761  
H146     H      0.062250000000     0.537860000000     0.335350000000     0.0370571  
H147     H      0.036250000000     0.453630000000     0.092040000000     0.0444455  
H148     H      0.983610000000     0.526810000000     0.150630000000     0.0479235  
H149     H      0.003840000000     0.464840000000     0.146270000000     0.0424376  
H150     H      0.988860000000     0.462690000000     0.268370000000     0.0638037  
H151     H      0.000390000000     0.549200000000     0.330030000000     0.0564116  
H152     H      0.048220000000     0.555350000000     0.109550000000     0.0411018  
H153     H      0.202940000000     0.013710000000     0.526870000000     0.0505266  
H154     H      0.315050000000     0.915910000000     0.496210000000     0.0404041  
H155     H      0.308740000000     0.024710000000     0.469900000000     0.0864483  
H156     H      0.101860000000     0.014840000000     0.451880000000     0.041495   
H157     H      0.368550000000     0.935760000000     0.521310000000     0.0491723  
H158     H      0.159220000000     0.956390000000     0.538160000000     0.0379249  
H159     H      0.154120000000     0.988470000000     0.430570000000     0.0384894  
H160     H      0.092860000000     0.950100000000     0.538960000000     0.0412164  
H161     H      0.374660000000     0.026120000000     0.461440000000     0.00563236 
H162     H      0.267550000000     0.009440000000     0.529500000000     0.0662633  
H163     H      0.381560000000     0.918480000000     0.479240000000     0.0410606  
H164     H      0.201370000000     0.935070000000     0.443840000000     0.0428047  
H165     H      0.326270000000     0.931450000000     0.452410000000     0.0402869  
H166     H      0.086970000000     0.974490000000     0.432390000000     0.0432488  
H167     H      0.142060000000     0.927440000000     0.504370000000     0.0397327  
H168     H      0.140950000000     0.944590000000     0.443890000000     0.0374574  
H169     H      0.265720000000     0.933150000000     0.444320000000     0.0445878  
H170     H      0.325000000000     0.992670000000     0.438630000000     0.0644623  
H171     H      0.109120000000     0.994540000000     0.536760000000     0.0452273  
H172     H      0.705590000000     0.969440000000     0.481190000000     0.0440971  
H173     H      0.815470000000     0.002230000000     0.570490000000     0.042543   
H174     H      0.810360000000     0.035930000000     0.463090000000     0.0854786  
H175     H      0.600810000000     0.043780000000     0.542730000000     0.0421882  
H176     H      0.866520000000     0.039690000000     0.560170000000     0.0678639  
H177     H      0.660620000000     0.948780000000     0.536250000000     0.0380563  
H178     H      0.653470000000     0.057520000000     0.508980000000     0.0394603  
H179     H      0.595960000000     0.941030000000     0.522600000000     0.0437251  
H180     H      0.875800000000     0.027230000000     0.456990000000     0.00126124 
H181     H      0.769060000000     0.975640000000     0.479020000000     0.0473828  
H182     H      0.880860000000     0.994610000000     0.565530000000     0.045403   
H183     H      0.700410000000     0.046900000000     0.565260000000     0.0492158  
H184     H      0.827830000000     0.972100000000     0.535530000000     0.0479498  
H185     H      0.588840000000     0.050730000000     0.497090000000     0.0438111  
H186     H      0.647910000000     0.961420000000     0.491760000000     0.0400016  
H187     H      0.644100000000     0.024090000000     0.476180000000     0.0423246  
H188     H      0.764580000000     0.055770000000     0.560540000000     0.05638    
H189     H      0.825550000000     0.991720000000     0.473200000000     0.0615354  
H190     H      0.604970000000     0.968580000000     0.560210000000     0.0388367  
H191     H      0.011900000000     0.714790000000     0.467390000000     0.0426369  
H192     H      0.977370000000     0.820620000000     0.556230000000     0.0390847  
H193     H      0.943980000000     0.822090000000     0.448710000000     0.0838587  
H194     H      0.938320000000     0.608760000000     0.526340000000     0.0411014  
H195     H      0.940300000000     0.872320000000     0.549160000000     0.057732   
H196     H      0.031200000000     0.672480000000     0.527400000000     0.0368481  
H197     H      0.926360000000     0.659670000000     0.489480000000     0.0387241  
H198     H      0.043000000000     0.607650000000     0.516330000000     0.0442672  
H199     H      0.955060000000     0.888010000000     0.446450000000    -0.00254146 
H200     H      0.004330000000     0.778440000000     0.464670000000     0.0428254  
H201     H      0.985460000000     0.885760000000     0.555390000000     0.0401415  
H202     H      0.931080000000     0.708200000000     0.547950000000     0.0479325  
H203     H      0.007440000000     0.834790000000     0.521930000000     0.0395379  
H204     H      0.936940000000     0.595020000000     0.480720000000     0.0444283  
H205     H      0.023670000000     0.658030000000     0.482330000000     0.0389254  
H206     H      0.963380000000     0.650640000000     0.460720000000     0.0418901  
H207     H      0.921190000000     0.772220000000     0.542880000000     0.0536157  
H208     H      0.988350000000     0.835640000000     0.459950000000     0.0535726  
H209     H      0.012150000000     0.616640000000     0.551240000000     0.0390198  
H210     H      0.063110000000     0.266420000000     0.449830000000     0.0490558  
H211     H      0.986840000000     0.168650000000     0.445540000000     0.0443529  
H212     H      0.029340000000     0.166330000000     0.549580000000     0.0852101  
H213     H      0.006340000000     0.369160000000     0.428990000000     0.0487368  
H214     H      0.956190000000     0.120890000000     0.473640000000     0.0710298  
H215     H      0.071610000000     0.324910000000     0.508540000000     0.0417751  
H216     H      0.974530000000     0.318790000000     0.452350000000     0.042663   
H217     H      0.067130000000     0.391100000000     0.509960000000     0.0519753  
H218     H      0.028940000000     0.099420000000     0.547860000000    -0.00468573 
H219     H      0.056380000000     0.202670000000     0.459370000000     0.0446253  
H220     H      0.987750000000     0.102060000000     0.443700000000     0.046176   
H221     H      0.982250000000     0.286480000000     0.527990000000     0.0482908  
H222     H      0.029510000000     0.148760000000     0.453560000000     0.0384764  
H223     H      0.968870000000     0.384720000000     0.453550000000     0.0545616  
H224     H      0.031650000000     0.340330000000     0.529640000000     0.0485214  
H225     H      0.974670000000     0.337250000000     0.496560000000     0.0442468  
H226     H      0.973200000000     0.222740000000     0.535050000000     0.0654465  
H227     H      0.053700000000     0.147620000000     0.513060000000     0.0565962  
H228     H      0.071050000000     0.373140000000     0.465900000000     0.0436984  
N1       N      0.894030000000     0.511640000000     0.017540000000    -0.197441   
N2       N      0.820110000000     0.514020000000     0.028120000000    -0.0872684  
N3       N      0.669530000000     0.521790000000     0.015010000000    -0.112117   
N4       N      0.595760000000     0.513020000000     0.007680000000    -0.171036   
N5       N      0.391580000000     0.481960000000     0.986090000000    -0.197786   
N6       N      0.317600000000     0.476420000000     0.977340000000    -0.0872192  
N7       N      0.168390000000     0.494390000000     0.957360000000    -0.112113   
N8       N      0.094220000000     0.500960000000     0.963540000000    -0.171335   
N9       N      0.500750000000     0.896040000000     0.023370000000    -0.196407   
N10      N      0.491940000000     0.822340000000     0.031800000000    -0.0875138  
N11      N      0.470430000000     0.673720000000     0.012210000000    -0.112219   
N12      N      0.476930000000     0.599680000000     0.004770000000    -0.171305   
N13      N      0.518320000000     0.096330000000     0.971630000000    -0.198171   
N14      N      0.519940000000     0.170730000000     0.966300000000    -0.0870443  
N15      N      0.507170000000     0.320550000000     0.983110000000    -0.110669   
N16      N      0.506420000000     0.394830000000     0.988370000000    -0.16929    
N17      N      0.494760000000     0.972130000000     0.897930000000    -0.196448   
N18      N      0.485200000000     0.963010000000     0.824350000000    -0.0865862  
N19      N      0.464680000000     0.974950000000     0.674570000000    -0.111509   
N20      N      0.470280000000     0.979220000000     0.600130000000    -0.169716   
N21      N      0.496850000000     0.991530000000     0.394170000000    -0.198562   
N22      N      0.501080000000     0.995610000000     0.319740000000    -0.0874614  
N23      N      0.525270000000     0.021370000000     0.172770000000    -0.111787   
N24      N      0.523770000000     0.020670000000     0.098060000000    -0.170775   
N25      N      0.991550000000     0.479380000000     0.594040000000    -0.198013   
N26      N      0.981450000000     0.473920000000     0.667960000000    -0.0871193  
N27      N      0.957800000000     0.495940000000     0.816200000000    -0.11259    
N28      N      0.965620000000     0.503020000000     0.890320000000    -0.171696   
N29      N      0.017580000000     0.504940000000     0.389210000000    -0.198275   
N30      N      0.024820000000     0.500430000000     0.315230000000    -0.0868973  
N31      N      0.035400000000     0.508590000000     0.163930000000    -0.112034   
N32      N      0.023210000000     0.509230000000     0.090060000000    -0.170486   
N33      N      0.383220000000     0.974960000000     0.484110000000    -0.195793   
N34      N      0.309750000000     0.971480000000     0.488900000000    -0.0868144  
N35      N      0.159090000000     0.978090000000     0.485840000000    -0.111268   
N36      N      0.085500000000     0.976430000000     0.489200000000    -0.171224   
N37      N      0.883500000000     0.015560000000     0.512490000000    -0.195291   
N38      N      0.809640000000     0.022700000000     0.518090000000    -0.0860528  
N39      N      0.659890000000     0.004390000000     0.526880000000    -0.11197    
N40      N      0.586700000000     0.996940000000     0.515520000000    -0.172101   
N41      N      0.964360000000     0.892350000000     0.502630000000    -0.198452   
N42      N      0.956590000000     0.818220000000     0.503670000000    -0.0881648  
N43      N      0.976950000000     0.668800000000     0.512610000000    -0.112555   
N44      N      0.988390000000     0.595640000000     0.505110000000    -0.171549   
N45      N      0.999500000000     0.096650000000     0.499410000000    -0.196021   
N46      N      0.004120000000     0.170820000000     0.499310000000    -0.0863449  
N47      N      0.024790000000     0.318250000000     0.477940000000    -0.111844   
N48      N      0.020010000000     0.392560000000     0.477960000000    -0.169108   
Ni1      Ni     0.987790000000     0.993800000000     0.532030000000     1.02072    
Ni2      Ni     0.980400000000     0.994530000000     0.469290000000     1.01327    
Ni3      Ni     0.973520000000     0.489930000000     0.487050000000     1.0157     
Ni4      Ni     0.035170000000     0.498160000000     0.496530000000     1.00679    
Ni5      Ni     0.489130000000     0.954400000000     0.496190000000     1.00019    
Ni6      Ni     0.481660000000     0.016900000000     0.498550000000     1.0272     
Ni7      Ni     0.540530000000     0.992540000000     0.994500000000     1.00029    
Ni8      Ni     0.478520000000     0.000210000000     0.001510000000     1.02173    
Ni9      Ni     0.992770000000     0.474660000000     0.991630000000     0.992844   
Ni10     Ni     0.995370000000     0.537390000000     0.989000000000     1.00882    
Ni11     Ni     0.490820000000     0.494600000000     0.028160000000     1.00604    
Ni12     Ni     0.496490000000     0.500400000000     0.965540000000     0.99819    
O1       O      0.036680000000     0.984130000000     0.524210000000    -0.453617   
O2       O      0.938100000000     0.003110000000     0.535770000000    -0.44295    
O3       O      0.978310000000     0.944230000000     0.530680000000    -0.455432   
O4       O      0.997100000000     0.043690000000     0.529220000000    -0.431398   
O5       O      0.989340000000     0.044220000000     0.470720000000    -0.451553   
O6       O      0.971180000000     0.944600000000     0.472120000000    -0.444894   
O7       O      0.931420000000     0.004200000000     0.477140000000    -0.443357   
O8       O      0.030250000000     0.985580000000     0.465540000000    -0.450621   
O9       O      0.969390000000     0.481680000000     0.537230000000    -0.451771   
O10      O      0.981740000000     0.498590000000     0.437780000000    -0.43242    
O11      O      0.983430000000     0.440830000000     0.479620000000    -0.442926   
O12      O      0.967770000000     0.539640000000     0.494430000000    -0.45184    
O13      O      0.025620000000     0.547790000000     0.501150000000    -0.449816   
O14      O      0.040510000000     0.447930000000     0.491880000000    -0.44244    
O15      O      0.039810000000     0.503020000000     0.445970000000    -0.451847   
O16      O      0.026470000000     0.492530000000     0.546150000000    -0.439674   
O17      O      0.538470000000     0.961950000000     0.504350000000    -0.451555   
O18      O      0.438910000000     0.950970000000     0.489020000000    -0.448523   
O19      O      0.496320000000     0.959440000000     0.445960000000    -0.449244   
O20      O      0.481830000000     0.953520000000     0.546330000000    -0.450302   
O21      O      0.474670000000     0.011870000000     0.548820000000    -0.442248   
O22      O      0.488400000000     0.017700000000     0.448330000000    -0.446008   
O23      O      0.432410000000     0.009440000000     0.490990000000    -0.426971   
O24      O      0.531690000000     0.020390000000     0.505630000000    -0.452735   
O25      O      0.545280000000     0.002700000000     0.044110000000    -0.447339   
O26      O      0.531530000000     0.982300000000     0.945410000000    -0.448773   
O27      O      0.543150000000     0.042290000000     0.984110000000    -0.447914   
O28      O      0.533820000000     0.943600000000     0.005400000000    -0.450307   
O29      O      0.476430000000     0.951310000000     0.015530000000    -0.439627   
O30      O      0.484710000000     0.048260000000     0.986820000000    -0.450502   
O31      O      0.473390000000     0.986900000000     0.952850000000    -0.438468   
O32      O      0.487770000000     0.013630000000     0.049640000000    -0.447734   
O33      O      0.008990000000     0.478180000000     0.039710000000    -0.446925   
O34      O      0.976810000000     0.475380000000     0.943360000000    -0.448993   
O35      O      0.041010000000     0.474150000000     0.975630000000    -0.44659    
O36      O      0.944680000000     0.479460000000     0.007420000000    -0.448848   
O37      O      0.945940000000     0.537800000000     0.000060000000    -0.439347   
O38      O      0.044680000000     0.532790000000     0.978210000000    -0.449578   
O39      O      0.984220000000     0.533600000000     0.939500000000    -0.449025   
O40      O      0.006350000000     0.536940000000     0.038640000000    -0.443849   
O41      O      0.498770000000     0.444810000000     0.022150000000    -0.442809   
O42      O      0.483090000000     0.544720000000     0.030040000000    -0.448362   
O43      O      0.441050000000     0.487910000000     0.020890000000    -0.435884   
O44      O      0.540940000000     0.501710000000     0.031290000000    -0.448671   
O45      O      0.546190000000     0.507620000000     0.972830000000    -0.448742   
O46      O      0.446450000000     0.492730000000     0.962340000000    -0.451585   
O47      O      0.488970000000     0.550200000000     0.971590000000    -0.449548   
O48      O      0.503400000000     0.450210000000     0.963570000000    -0.448089   


