data_structure

_audit_creation_method RASPA-1.0
_audit_creation_date 2023-6-5
_audit_author_name 'Poobodin Mano'

_cell_length_a    61.5695
_cell_length_b    61.7428
_cell_length_c    37.4216
_cell_angle_alpha 89.9491
_cell_angle_beta  90.0505
_cell_angle_gamma 119.916
_cell_volume      123302

_symmetry_cell_setting          triclinic
_symmetry_space_group_name_Hall 'P 1'
_symmetry_space_group_name_H-M  'P 1'
_symmetry_Int_Tables_number     1

_symmetry_equiv_pos_as_xyz 'x,y,z'

loop_
_atom_site_label
_atom_site_type_symbol
_atom_site_fract_x
_atom_site_fract_y
_atom_site_fract_z
_atom_site_charge
C1       C      0.875240000000     0.697190000000     0.555640000000     0.438115   
C2       C      0.844760000000     0.679150000000     0.684830000000     0.429876   
C3       C      0.814950000000     0.665090000000     0.598290000000     0.439759   
C4       C      0.905620000000     0.711640000000     0.642150000000     0.429982   
C5       C      0.172550000000     0.848850000000     0.899870000000     0.441457   
C6       C      0.175600000000     0.859670000000     0.764300000000     0.429076   
C7       C      0.221760000000     0.878780000000     0.834010000000     0.429136   
C8       C      0.126070000000     0.829660000000     0.829800000000     0.442379   
C9       C      0.522500000000     0.003750000000     0.936180000000     0.430439   
C10      C      0.488260000000     0.993790000000     0.063260000000     0.436851   
C11      C      0.461620000000     0.983670000000     0.974420000000     0.438673   
C12      C      0.549330000000     0.014000000000     0.024910000000     0.440683   
C13      C      0.201770000000     0.352610000000     0.207340000000     0.429454   
C14      C      0.179360000000     0.342640000000     0.339970000000     0.442585   
C15      C      0.144180000000     0.321040000000     0.257030000000     0.427572   
C16      C      0.236800000000     0.374200000000     0.289420000000     0.430658   
C17      C      0.864840000000     0.166750000000     0.075880000000     0.439997   
C18      C      0.827940000000     0.146480000000     0.201950000000     0.428568   
C19      C      0.802510000000     0.132780000000     0.112040000000     0.42882    
C20      C      0.890540000000     0.180260000000     0.165600000000     0.439311   
C21      C      0.531060000000     0.531930000000     0.403000000000     0.429308   
C22      C      0.505780000000     0.511880000000     0.534100000000     0.427155   
C23      C      0.472080000000     0.499100000000     0.449730000000     0.439268   
C24      C      0.564110000000     0.544490000000     0.487580000000     0.427495   
C25      C      0.181610000000     0.320800000000     0.841360000000     0.438081   
C26      C      0.172170000000     0.339830000000     0.711290000000     0.428701   
C27      C      0.161610000000     0.360020000000     0.797210000000     0.437936   
C28      C      0.192050000000     0.300600000000     0.756350000000     0.426184   
C29      C      0.323850000000     0.133100000000     0.696340000000     0.429879   
C30      C      0.318630000000     0.138370000000     0.560710000000     0.429494   
C31      C      0.295730000000     0.157940000000     0.636460000000     0.438596   
C32      C      0.346510000000     0.113510000000     0.620490000000     0.438105   
C33      C      0.037000000000     0.494120000000     0.062690000000     0.429036   
C34      C      0.029250000000     0.510980000000     0.931060000000     0.427438   
C35      C      0.006780000000     0.522570000000     0.015100000000     0.426513   
C36      C      0.059170000000     0.482760000000     0.979460000000     0.427735   
C37      C      0.678630000000     0.842850000000     0.251110000000     0.439131   
C38      C      0.685860000000     0.816980000000     0.378500000000     0.439925   
C39      C      0.701200000000     0.804800000000     0.289300000000     0.426625   
C40      C      0.663200000000     0.855500000000     0.339930000000     0.440079   
C41      C      0.854330000000     0.662570000000     0.188470000000     0.428419   
C42      C      0.836380000000     0.663110000000     0.055340000000     0.438747   
C43      C      0.820610000000     0.684600000000     0.136610000000     0.43803    
C44      C      0.870340000000     0.640700000000     0.107690000000     0.438283   
C45      C      0.522900000000     0.997520000000     0.564680000000     0.439531   
C46      C      0.516840000000     0.992490000000     0.428340000000     0.427244   
C47      C      0.490480000000     0.013150000000     0.498120000000     0.427868   
C48      C      0.549110000000     0.976830000000     0.494750000000     0.429525   
C49      C      0.307140000000     0.154620000000     0.065450000000     0.444336   
C50      C      0.308090000000     0.174550000000     0.198020000000     0.442312   
C51      C      0.331670000000     0.211430000000     0.117090000000     0.441432   
C52      C      0.283710000000     0.118040000000     0.145920000000     0.429383   
C53      C      0.507440000000     0.512840000000     0.033700000000     0.43754    
C54      C      0.482550000000     0.489210000000     0.903050000000     0.441433   
C55      C      0.465840000000     0.455580000000     0.986880000000     0.427536   
C56      C      0.523900000000     0.546140000000     0.948840000000     0.428671   
C57      C      0.160540000000     0.855180000000     0.393300000000     0.442638   
C58      C      0.148620000000     0.820620000000     0.266450000000     0.430487   
C59      C      0.135620000000     0.793940000000     0.355740000000     0.42927    
C60      C      0.173810000000     0.882180000000     0.304130000000     0.438253   
C61      C      0.012530000000     0.487770000000     0.430780000000     0.443255   
C62      C      0.017860000000     0.515480000000     0.560590000000     0.443701   
C63      C      0.032420000000     0.546620000000     0.474570000000     0.440351   
C64      C      0.997980000000     0.456510000000     0.516870000000     0.439429   
C65      C      0.850920000000     0.162600000000     0.706080000000     0.427434   
C66      C      0.846480000000     0.165900000000     0.569880000000     0.439778   
C67      C      0.819790000000     0.117310000000     0.636540000000     0.430537   
C68      C      0.877810000000     0.211980000000     0.639590000000     0.428647   
C69      C      0.679320000000     0.829850000000     0.748020000000     0.427675   
C70      C      0.681770000000     0.851570000000     0.880300000000     0.427776   
C71      C      0.701920000000     0.886650000000     0.797650000000     0.43897    
C72      C      0.658680000000     0.793960000000     0.830760000000     0.438134   
C73      C      0.707550000000     0.943390000000     0.756200000000    -0.0334573  
C74      C      0.803120000000     0.055220000000     0.663450000000    -0.0306123  
C75      C      0.776780000000     0.080540000000     0.638330000000    -0.00499829 
C76      C      0.814150000000     0.074660000000     0.633550000000    -0.00492857 
C77      C      0.751220000000     0.997920000000     0.674210000000    -0.0540133  
C78      C      0.756900000000     0.005420000000     0.748110000000    -0.0537666  
C79      C      0.764370000000     0.022290000000     0.687720000000     0.0617526  
C80      C      0.766540000000     0.060800000000     0.667960000000    -0.0309357  
C81      C      0.743860000000     0.981040000000     0.734600000000     0.0609778  
C82      C      0.748530000000     0.946740000000     0.755930000000    -0.0826641  
C83      C      0.741110000000     0.977410000000     0.697340000000    -0.0556695  
C84      C      0.741150000000     0.927420000000     0.786050000000     0.169893   
C85      C      0.698520000000     0.924230000000     0.786480000000    -0.00327377 
C86      C      0.767190000000     0.025920000000     0.724970000000    -0.056294   
C87      C      0.952580000000     0.393580000000     0.553290000000    -0.0332148  
C88      C      0.932230000000     0.271630000000     0.614560000000    -0.0307601  
C89      C      0.882850000000     0.254190000000     0.645530000000    -0.00505959 
C90      C      0.920730000000     0.248900000000     0.639550000000    -0.00560148 
C91      C      0.945970000000     0.334340000000     0.623510000000    -0.0540297  
C92      C      0.946540000000     0.335770000000     0.548810000000    -0.053706   
C93      C      0.935180000000     0.311930000000     0.604230000000     0.0614089  
C94      C      0.895330000000     0.276340000000     0.619890000000    -0.0305662  
C95      C      0.957320000000     0.358190000000     0.568100000000     0.0605979  
C96      C      0.994030000000     0.398800000000     0.557950000000    -0.0826196  
C97      C      0.956820000000     0.357300000000     0.605740000000    -0.0555986  
C98      C      0.005370000000     0.421470000000     0.532690000000     0.169829   
C99      C      0.961190000000     0.415150000000     0.526820000000    -0.00206343 
C100     C      0.935390000000     0.312800000000     0.566600000000    -0.0562871  
C101     C      0.078690000000     0.612970000000     0.450920000000    -0.0331644  
C102     C      0.088180000000     0.728850000000     0.381670000000    -0.03028    
C103     C      0.142350000000     0.761910000000     0.384690000000    -0.00493825 
C104     C      0.098820000000     0.757150000000     0.381310000000    -0.00547411 
C105     C      0.089940000000     0.688140000000     0.444410000000    -0.0538401  
C106     C      0.076380000000     0.653390000000     0.388970000000    -0.0536198  
C107     C      0.093810000000     0.696410000000     0.408910000000     0.0616558  
C108     C      0.129540000000     0.733390000000     0.384730000000    -0.0304198  
C109     C      0.072450000000     0.645110000000     0.424490000000     0.0608025  
C110     C      0.037470000000     0.608440000000     0.450480000000    -0.0825054  
C111     C      0.079390000000     0.662740000000     0.452260000000    -0.0556284  
C112     C      0.024340000000     0.579770000000     0.451940000000     0.169914   
C113     C      0.068300000000     0.584780000000     0.451220000000    -0.00184832 
C114     C      0.087000000000     0.678820000000     0.381120000000    -0.0562683  
C115     C      0.648830000000     0.730280000000     0.853970000000    -0.033569   
C116     C      0.545920000000     0.612800000000     0.924790000000    -0.0301348  
C117     C      0.564850000000     0.577860000000     0.925020000000    -0.00491228 
C118     C      0.527190000000     0.584800000000     0.925380000000    -0.00525982 
C119     C      0.590120000000     0.651160000000     0.862010000000    -0.0538008  
C120     C      0.608110000000     0.687320000000     0.915920000000    -0.0534547  
C121     C      0.584850000000     0.643690000000     0.897780000000     0.0617299  
C122     C      0.581540000000     0.606350000000     0.924630000000    -0.030417   
C123     C      0.612560000000     0.694830000000     0.880060000000     0.0606128  
C124     C      0.608410000000     0.727340000000     0.850540000000    -0.0831503  
C125     C      0.603980000000     0.676480000000     0.853100000000    -0.0555142  
C126     C      0.619610000000     0.755750000000     0.848020000000     0.170476   
C127     C      0.662830000000     0.758840000000     0.852990000000    -0.0013283  
C128     C      0.594520000000     0.661960000000     0.924840000000    -0.0563236  
C129     C      0.177380000000     0.937860000000     0.259020000000    -0.0333255  
C130     C      0.272330000000     0.058370000000     0.184560000000    -0.0305244  
C131     C      0.243290000000     0.078580000000     0.151560000000    -0.00478215 
C132     C      0.284490000000     0.078910000000     0.156350000000    -0.00492319 
C133     C      0.223050000000     0.997540000000     0.183430000000    -0.0540526  
C134     C      0.223300000000     0.000720000000     0.257990000000    -0.0535717  
C135     C      0.233660000000     0.021030000000     0.199780000000     0.061687   
C136     C      0.232750000000     0.058000000000     0.180010000000    -0.0306378  
C137     C      0.213160000000     0.977250000000     0.241650000000     0.0606676  
C138     C      0.218750000000     0.942610000000     0.258540000000    -0.0826235  
C139     C      0.212810000000     0.975780000000     0.204060000000    -0.0556118  
C140     C      0.211730000000     0.922030000000     0.286630000000     0.169803   
C141     C      0.168170000000     0.917600000000     0.287760000000    -0.00259254 
C142     C      0.233420000000     0.022480000000     0.237330000000    -0.0563272  
C143     C      0.342370000000     0.273100000000     0.085340000000    -0.0335077  
C144     C      0.445870000000     0.391500000000     0.019390000000    -0.0304636  
C145     C      0.423050000000     0.421600000000     0.000850000000    -0.00531532 
C146     C      0.459020000000     0.412870000000     0.992640000000    -0.00514707 
C147     C      0.391600000000     0.335560000000     0.017110000000    -0.0534189  
C148     C      0.394140000000     0.333820000000     0.091590000000    -0.053881   
C149     C      0.405160000000     0.357820000000     0.036340000000     0.0614685  
C150     C      0.411430000000     0.399550000000     0.026950000000    -0.0305671  
C151     C      0.380740000000     0.311530000000     0.072310000000     0.0610082  
C152     C      0.381880000000     0.273600000000     0.083080000000    -0.0826836  
C153     C      0.379540000000     0.312580000000     0.034790000000    -0.0557267  
C154     C      0.372360000000     0.250820000000     0.107910000000     0.170428   
C155     C      0.330980000000     0.250730000000     0.110700000000    -0.00204024 
C156     C      0.406350000000     0.356810000000     0.073860000000    -0.0561457  
C157     C      0.663060000000     0.798580000000     0.468900000000    -0.0339403  
C158     C      0.700740000000     0.820910000000     0.657970000000    -0.0299534  
C159     C      0.658050000000     0.822080000000     0.689910000000    -0.00475258 
C160     C      0.703890000000     0.832640000000     0.694920000000    -0.00557378 
C161     C      0.683510000000     0.836040000000     0.574420000000    -0.0533741  
C162     C      0.682090000000     0.792390000000     0.550970000000    -0.053659   
C163     C      0.682230000000     0.818630000000     0.599580000000     0.0615165  
C164     C      0.657500000000     0.810520000000     0.653490000000    -0.0304466  
C165     C      0.684340000000     0.810260000000     0.525880000000     0.0609765  
C166     C      0.708240000000     0.826880000000     0.471040000000    -0.0837751  
C167     C      0.684230000000     0.831820000000     0.537870000000    -0.0553969  
C168     C      0.711370000000     0.819700000000     0.432900000000     0.170422   
C169     C      0.664900000000     0.790340000000     0.430950000000    -0.00288361 
C170     C      0.680690000000     0.796300000000     0.587510000000    -0.0559831  
C171     C      0.698550000000     0.873420000000     0.160290000000    -0.0335411  
C172     C      0.658940000000     0.849090000000     0.971960000000    -0.0309489  
C173     C      0.706880000000     0.869840000000     0.934990000000    -0.00560811 
C174     C      0.661040000000     0.857490000000     0.932960000000    -0.00482355 
C175     C      0.680930000000     0.878480000000     0.050640000000    -0.0537309  
C176     C      0.678460000000     0.835930000000     0.080990000000    -0.0534121  
C177     C      0.681020000000     0.860280000000     0.028380000000     0.061568   
C178     C      0.703070000000     0.861260000000     0.973940000000    -0.0303377  
C179     C      0.679330000000     0.854560000000     0.103300000000     0.0608231  
C180     C      0.654740000000     0.842950000000     0.157590000000    -0.0834169  
C181     C      0.679730000000     0.875550000000     0.087780000000    -0.0556054  
C182     C      0.654160000000     0.833110000000     0.195500000000     0.171537   
C183     C      0.701480000000     0.866440000000     0.198440000000    -0.00031077 
C184     C      0.678950000000     0.838530000000     0.043860000000    -0.0561263  
C185     C      0.766950000000     0.694490000000     0.162780000000    -0.0334372  
C186     C      0.749010000000     0.789130000000     0.255410000000    -0.0303446  
C187     C      0.694610000000     0.766320000000     0.259880000000    -0.00495057 
C188     C      0.737730000000     0.805970000000     0.261110000000    -0.00497605 
C189     C      0.745540000000     0.751020000000     0.184910000000    -0.0536717  
C190     C      0.765920000000     0.730810000000     0.232220000000    -0.0535201  
C191     C      0.743350000000     0.753260000000     0.221800000000     0.0614022  
C192     C      0.708400000000     0.751690000000     0.254170000000    -0.0306234  
C193     C      0.768630000000     0.729080000000     0.195320000000     0.0607205  
C194     C      0.804480000000     0.734620000000     0.161280000000    -0.0832201  
C195     C      0.757950000000     0.738940000000     0.171660000000    -0.0556984  
C196     C      0.821540000000     0.723430000000     0.154790000000     0.170684   
C197     C      0.781100000000     0.680230000000     0.157890000000    -0.000511914
C198     C      0.753310000000     0.742690000000     0.245470000000    -0.0562299  
C199     C      0.660290000000     0.908040000000     0.384680000000    -0.0330296  
C200     C      0.565920000000     0.930600000000     0.468750000000    -0.030522   
C201     C      0.592090000000     0.982970000000     0.489960000000    -0.00542867 
C202     C      0.554840000000     0.939870000000     0.497420000000    -0.00511367 
C203     C      0.617430000000     0.924150000000     0.462040000000    -0.0538553  
C204     C      0.612100000000     0.923090000000     0.387740000000    -0.053489   
C205     C      0.604740000000     0.935290000000     0.446350000000     0.0615164  
C206     C      0.602260000000     0.972300000000     0.461770000000    -0.0307867  
C207     C      0.624620000000     0.911770000000     0.403440000000     0.0607736  
C208     C      0.618960000000     0.871590000000     0.386530000000    -0.0823864  
C209     C      0.627220000000     0.912390000000     0.440900000000    -0.0555935  
C210     C      0.625520000000     0.857920000000     0.357930000000     0.17017    
C211     C      0.669060000000     0.896720000000     0.355680000000    -0.00282485 
C212     C      0.602130000000     0.934670000000     0.408900000000    -0.0561636  
C213     C      0.044600000000     0.531700000000     0.650610000000    -0.0336998  
C214     C      0.004360000000     0.504770000000     0.837590000000    -0.0307238  
C215     C      0.051160000000     0.533840000000     0.877010000000    -0.00505749 
C216     C      0.006860000000     0.495370000000     0.874300000000    -0.0042056  
C217     C      0.028930000000     0.504550000000     0.758700000000    -0.0534851  
C218     C      0.022400000000     0.543260000000     0.732160000000    -0.0541298  
C219     C      0.027310000000     0.521140000000     0.782560000000     0.0613151  
C220     C      0.046090000000     0.540460000000     0.839740000000    -0.0304544  
C221     C      0.024710000000     0.527060000000     0.708260000000     0.0612302  
C222     C      0.999250000000     0.512040000000     0.655150000000    -0.0830173  
C223     C      0.027310000000     0.507200000000     0.721910000000    -0.0560031  
C224     C      0.997030000000     0.518670000000     0.616220000000     0.171126   
C225     C      0.044150000000     0.539130000000     0.611840000000    -0.00216892 
C226     C      0.023340000000     0.540180000000     0.769060000000    -0.0560516  
C227     C      0.034960000000     0.475410000000     0.346330000000    -0.0335713  
C228     C      0.043940000000     0.506240000000     0.158720000000    -0.0313455  
C229     C      0.027930000000     0.463590000000     0.111270000000    -0.00528154 
C230     C      0.056060000000     0.509890000000     0.121880000000    -0.00416213 
C231     C      0.050250000000     0.489820000000     0.234680000000    -0.0535232  
C232     C      0.001090000000     0.463320000000     0.259720000000    -0.053389   
C233     C      0.030550000000     0.478570000000     0.209960000000     0.0608364  
C234     C      0.017520000000     0.461600000000     0.148950000000    -0.0307157  
C235     C      0.020780000000     0.474720000000     0.284430000000     0.0603465  
C236     C      0.004910000000     0.488790000000     0.332960000000    -0.0831566  
C237     C      0.045530000000     0.488560000000     0.271340000000    -0.0548922  
C238     C      0.993230000000     0.481520000000     0.370410000000     0.171201   
C239     C      0.025010000000     0.468000000000     0.384360000000    -0.00257982 
C240     C      0.005740000000     0.465690000000     0.222990000000    -0.0552166  
C241     C      0.885310000000     0.589260000000     0.093930000000    -0.0334294  
C242     C      0.988990000000     0.571050000000     0.035080000000    -0.0307409  
C243     C      0.966230000000     0.516750000000     0.035800000000    -0.0051526  
C244     C      0.005940000000     0.559570000000     0.037690000000    -0.00495812 
C245     C      0.945260000000     0.571400000000     0.091880000000    -0.0539495  
C246     C      0.926840000000     0.585780000000     0.033650000000    -0.0537095  
C247     C      0.950010000000     0.566450000000     0.057120000000     0.0612683  
C248     C      0.951370000000     0.530520000000     0.033470000000    -0.0307021  
C249     C      0.922150000000     0.590810000000     0.068420000000     0.0604496  
C250     C      0.923800000000     0.628590000000     0.089390000000    -0.0827047  
C251     C      0.931510000000     0.583500000000     0.097610000000    -0.0556661  
C252     C      0.910170000000     0.643730000000     0.087890000000     0.170239   
C253     C      0.869170000000     0.601630000000     0.091920000000    -0.00192889 
C254     C      0.940680000000     0.573750000000     0.027910000000    -0.0563962  
C255     C      0.326500000000     0.137150000000     0.981360000000    -0.0336272  
C256     C      0.332130000000     0.154560000000     0.789470000000    -0.0310513  
C257     C      0.312520000000     0.107390000000     0.751190000000    -0.00499562 
C258     C      0.343240000000     0.153970000000     0.753200000000    -0.00394196 
C259     C      0.339560000000     0.143820000000     0.868830000000    -0.0534464  
C260     C      0.291240000000     0.124010000000     0.896380000000    -0.0531538  
C261     C      0.319020000000     0.132130000000     0.845570000000     0.0612376  
C262     C      0.303370000000     0.109820000000     0.788180000000    -0.030757   
C263     C      0.311790000000     0.135440000000     0.919690000000     0.0606171  
C264     C      0.301710000000     0.156310000000     0.966170000000    -0.0832213  
C265     C      0.336140000000     0.146080000000     0.905230000000    -0.0548288  
C266     C      0.290790000000     0.152500000000     0.004110000000     0.171742   
C267     C      0.317180000000     0.132560000000     0.019860000000    -0.00183149 
C268     C      0.294710000000     0.122840000000     0.859680000000    -0.0552002  
C269     C      0.330800000000     0.179790000000     0.288320000000    -0.0333455  
C270     C      0.291450000000     0.132860000000     0.470690000000    -0.0306296  
C271     C      0.340870000000     0.155760000000     0.503940000000    -0.0052515  
C272     C      0.295340000000     0.121130000000     0.504440000000    -0.00493123 
C273     C      0.311100000000     0.138090000000     0.385490000000    -0.0540656  
C274     C      0.307560000000     0.180980000000     0.373970000000    -0.0539083  
C275     C      0.311340000000     0.152320000000     0.414750000000     0.061592   
C276     C      0.335080000000     0.165800000000     0.470150000000    -0.0304039  
C277     C      0.308570000000     0.167430000000     0.344640000000     0.060851   
C278     C      0.285360000000     0.161690000000     0.289890000000    -0.0827469  
C279     C      0.309380000000     0.145310000000     0.350710000000    -0.055717   
C280     C      0.285630000000     0.174220000000     0.254170000000     0.17039    
C281     C      0.332480000000     0.192890000000     0.253030000000    -0.00256576 
C282     C      0.308570000000     0.173350000000     0.408810000000    -0.0562498  
C283     C      0.400180000000     0.106860000000     0.591850000000    -0.0334084  
C284     C      0.434960000000     0.016210000000     0.525080000000    -0.030752   
C285     C      0.484670000000     0.050080000000     0.496650000000    -0.00524455 
C286     C      0.447290000000     0.006510000000     0.498970000000    -0.00529234 
C287     C      0.417010000000     0.061590000000     0.520090000000    -0.0540093  
C288     C      0.416790000000     0.061200000000     0.594820000000    -0.0537817  
C289     C      0.430250000000     0.052060000000     0.538450000000     0.0613275  
C290     C      0.471140000000     0.058250000000     0.523000000000    -0.0307142  
C291     C      0.403410000000     0.070600000000     0.576460000000     0.0606627  
C292     C      0.362760000000     0.066020000000     0.589150000000    -0.082643   
C293     C      0.403740000000     0.070870000000     0.538810000000    -0.0557857  
C294     C      0.348580000000     0.074020000000     0.614860000000     0.169529   
C295     C      0.387910000000     0.116420000000     0.618180000000    -0.00319869 
C296     C      0.430190000000     0.052070000000     0.576100000000    -0.0563078  
C297     C      0.164490000000     0.414280000000     0.843770000000    -0.0334403  
C298     C      0.073170000000     0.438180000000     0.934890000000    -0.0305859  
C299     C      0.100820000000     0.486720000000     0.969700000000    -0.00541613 
C300     C      0.061250000000     0.444630000000     0.965860000000    -0.00522423 
C301     C      0.122910000000     0.428650000000     0.926640000000    -0.0539908  
C302     C      0.121090000000     0.435550000000     0.853070000000    -0.0537842  
C303     C      0.112190000000     0.442560000000     0.914000000000     0.0613538  
C304     C      0.111360000000     0.478570000000     0.938670000000    -0.0306939  
C305     C      0.131260000000     0.421120000000     0.865670000000     0.0606496  
C306     C      0.121160000000     0.381030000000     0.841660000000    -0.0825768  
C307     C      0.132330000000     0.417950000000     0.902800000000    -0.0556985  
C308     C      0.126320000000     0.368010000000     0.810620000000     0.169834   
C309     C      0.171580000000     0.402870000000     0.812730000000    -0.00357018 
C310     C      0.111590000000     0.446190000000     0.876920000000    -0.0563212  
C311     C      0.283970000000     0.209110000000     0.661340000000    -0.0334069  
C312     C      0.191570000000     0.243810000000     0.720680000000    -0.0305624  
C313     C      0.227660000000     0.293800000000     0.745900000000    -0.00504208 
C314     C      0.182770000000     0.257310000000     0.746150000000    -0.00555819 
C315     C      0.236570000000     0.224880000000     0.729240000000    -0.0539571  
C316     C      0.235650000000     0.221420000000     0.654690000000    -0.05382    
C317     C      0.226470000000     0.236890000000     0.709140000000     0.0614458  
C318     C      0.234080000000     0.278640000000     0.720150000000    -0.0304297  
C319     C      0.245930000000     0.209560000000     0.674800000000     0.0605005  
C320     C      0.244750000000     0.170060000000     0.666200000000    -0.0825947  
C321     C      0.246290000000     0.211380000000     0.712350000000    -0.0555351  
C322     C      0.254370000000     0.156320000000     0.642390000000     0.169447   
C323     C      0.295080000000     0.197490000000     0.636620000000    -0.00302965 
C324     C      0.226050000000     0.235050000000     0.671600000000    -0.0563591  
C325     C      0.493030000000     0.477330000000     0.811060000000    -0.0335434  
C326     C      0.484740000000     0.514550000000     0.627430000000    -0.0307409  
C327     C      0.505200000000     0.488280000000     0.587150000000    -0.00502021 
C328     C      0.497610000000     0.525500000000     0.591680000000    -0.00438905 
C329     C      0.507430000000     0.511670000000     0.707460000000    -0.0537494  
C330     C      0.461570000000     0.471390000000     0.729180000000    -0.053946   
C331     C      0.490070000000     0.496370000000     0.681650000000     0.061526   
C332     C      0.492340000000     0.479880000000     0.623470000000    -0.0303565  
C333     C      0.479290000000     0.486200000000     0.754980000000     0.0609372  
C334     C      0.467950000000     0.497820000000     0.810560000000    -0.0828526  
C335     C      0.502050000000     0.506900000000     0.743810000000    -0.0557269  
C336     C      0.458420000000     0.488730000000     0.848690000000     0.170317   
C337     C      0.484340000000     0.467470000000     0.848820000000    -0.00282699 
C338     C      0.466710000000     0.476560000000     0.692780000000    -0.0562385  
C339     C      0.509880000000     0.536910000000     0.126980000000    -0.0334523  
C340     C      0.538470000000     0.517610000000     0.310820000000    -0.0306228  
C341     C      0.536970000000     0.557850000000     0.349370000000    -0.00479736 
C342     C      0.549250000000     0.524510000000     0.348570000000    -0.00504748 
C343     C      0.550870000000     0.552180000000     0.230100000000    -0.0540272  
C344     C      0.506570000000     0.510590000000     0.206670000000    -0.0535354  
C345     C      0.534010000000     0.535410000000     0.255240000000     0.0614773  
C346     C      0.526340000000     0.549660000000     0.311610000000    -0.0307047  
C347     C      0.523880000000     0.526810000000     0.181490000000     0.0604441  
C348     C      0.539450000000     0.522310000000     0.123790000000    -0.0831874  
C349     C      0.545760000000     0.548190000000     0.193530000000    -0.055492   
C350     C      0.530960000000     0.511260000000     0.086190000000     0.170203   
C351     C      0.498160000000     0.525660000000     0.090850000000    -0.000712135
C352     C      0.511340000000     0.514970000000     0.243240000000    -0.0562652  
C353     C      0.864320000000     0.185130000000     0.984380000000    -0.033907   
C354     C      0.874720000000     0.159010000000     0.795980000000    -0.0305824  
C355     C      0.834080000000     0.164340000000     0.765170000000    -0.00476995 
C356     C      0.865260000000     0.148940000000     0.758480000000    -0.00536399 
C357     C      0.843380000000     0.146200000000     0.880150000000    -0.053827   
C358     C      0.888140000000     0.187230000000     0.903500000000    -0.0539088  
C359     C      0.860340000000     0.162800000000     0.854970000000     0.0612034  
C360     C      0.845260000000     0.174010000000     0.802260000000    -0.0308038  
C361     C      0.871530000000     0.170190000000     0.928620000000     0.0607839  
C362     C      0.875430000000     0.152340000000     0.984840000000    -0.0836916  
C363     C      0.848670000000     0.149970000000     0.916680000000    -0.0555994  
C364     C      0.885780000000     0.159240000000     0.023060000000     0.170236   
C365     C      0.874800000000     0.193290000000     0.022120000000    -0.00285073 
C366     C      0.882510000000     0.183840000000     0.867020000000    -0.0560954  
C367     C      0.821060000000     0.166860000000     0.479840000000    -0.0334552  
C368     C      0.828830000000     0.131290000000     0.294730000000    -0.0308382  
C369     C      0.806850000000     0.154950000000     0.252050000000    -0.00498345 
C370     C      0.818330000000     0.121310000000     0.257420000000    -0.00525819 
C371     C      0.805210000000     0.133860000000     0.374470000000    -0.0540283  
C372     C      0.850640000000     0.175480000000     0.394400000000    -0.0537155  
C373     C      0.821900000000     0.149120000000     0.347970000000     0.0613856  
C374     C      0.817440000000     0.163860000000     0.289540000000    -0.0306848  
C375     C      0.833730000000     0.160530000000     0.420910000000     0.0605549  
C376     C      0.849230000000     0.150410000000     0.473810000000    -0.0828624  
C377     C      0.811130000000     0.139240000000     0.410640000000    -0.0555921  
C378     C      0.861300000000     0.160590000000     0.510430000000     0.170645   
C379     C      0.831500000000     0.177880000000     0.516630000000    -0.0028211  
C380     C      0.845010000000     0.169720000000     0.358250000000    -0.0562844  
C381     C      0.163280000000     0.357580000000     0.428700000000    -0.033434   
C382     C      0.189470000000     0.353370000000     0.616990000000    -0.0311047  
C383     C      0.144630000000     0.335990000000     0.660610000000    -0.00545272 
C384     C      0.191740000000     0.362640000000     0.655490000000    -0.00454598 
C385     C      0.175770000000     0.366460000000     0.541820000000    -0.0537246  
C386     C      0.152790000000     0.319370000000     0.509800000000    -0.0536685  
C387     C      0.164450000000     0.345080000000     0.563490000000     0.060996   
C388     C      0.144130000000     0.328260000000     0.621680000000    -0.0305663  
C389     C      0.163900000000     0.340750000000     0.488110000000     0.0604339  
C390     C      0.183360000000     0.332840000000     0.437550000000    -0.0829441  
C391     C      0.176080000000     0.364430000000     0.504660000000    -0.0552332  
C392     C      0.178430000000     0.323420000000     0.398760000000     0.17094    
C393     C      0.157610000000     0.349780000000     0.389560000000    -0.00266567 
C394     C      0.153510000000     0.321400000000     0.547030000000    -0.0555635  
C395     C      0.167270000000     0.317220000000     0.935170000000    -0.034118   
C396     C      0.210530000000     0.331810000000     0.120450000000    -0.0306218  
C397     C      0.202670000000     0.371390000000     0.148550000000    -0.00448808 
C398     C      0.221780000000     0.343800000000     0.156430000000    -0.0049877  
C399     C      0.212970000000     0.360080000000     0.033470000000    -0.0533984  
C400     C      0.181960000000     0.310050000000     0.014760000000    -0.053369   
C401     C      0.202160000000     0.342050000000     0.060470000000     0.06136    
C402     C      0.191750000000     0.358200000000     0.112870000000    -0.0310607  
C403     C      0.193730000000     0.327910000000     0.987760000000     0.0609615  
C404     C      0.212240000000     0.333740000000     0.927810000000    -0.081484   
C405     C      0.208430000000     0.353270000000     0.997470000000    -0.0551429  
C406     C      0.208080000000     0.320250000000     0.892080000000     0.173101   
C407     C      0.161810000000     0.303250000000     0.899450000000    -0.00206308 
C408     C      0.185610000000     0.317020000000     0.050730000000    -0.0555622  
C409     C      0.952510000000     0.234140000000     0.190330000000    -0.0335715  
C410     C      0.080650000000     0.265560000000     0.241690000000    -0.0307651  
C411     C      0.105810000000     0.319890000000     0.235880000000    -0.00479952 
C412     C      0.109200000000     0.280320000000     0.237830000000    -0.00495867 
C413     C      0.032140000000     0.258670000000     0.185920000000    -0.0539536  
C414     C      0.000940000000     0.241140000000     0.245860000000    -0.0538689  
C415     C      0.042740000000     0.263980000000     0.220140000000     0.061643   
C416     C      0.077560000000     0.303120000000     0.240280000000    -0.0305416  
C417     C      0.990340000000     0.235730000000     0.211610000000     0.0607675  
C418     C      0.956120000000     0.196870000000     0.189960000000    -0.0828515  
C419     C      0.006190000000     0.244690000000     0.181550000000    -0.0557094  
C420     C      0.927610000000     0.179630000000     0.191530000000     0.170034   
C421     C      0.923940000000     0.218900000000     0.192630000000    -0.00258122 
C422     C      0.026930000000     0.255200000000     0.250230000000    -0.0564594  
C423     C      0.413590000000     0.450040000000     0.407860000000    -0.0334417  
C424     C      0.294120000000     0.426140000000     0.328500000000    -0.030711   
C425     C      0.277950000000     0.377060000000     0.297770000000    -0.00408603 
C426     C      0.273950000000     0.415920000000     0.299360000000    -0.004759   
C427     C      0.356520000000     0.440800000000     0.331520000000    -0.0542048  
C428     C      0.351840000000     0.436970000000     0.405920000000    -0.0536975  
C429     C      0.332660000000     0.427810000000     0.346930000000     0.0617802  
C430     C      0.297730000000     0.388670000000     0.327110000000    -0.0307373  
C431     C      0.375720000000     0.449850000000     0.390500000000     0.0607407  
C432     C      0.411630000000     0.488230000000     0.410280000000    -0.0826777  
C433     C      0.377920000000     0.451770000000     0.353000000000    -0.055694   
C434     C      0.432210000000     0.499590000000     0.438910000000     0.169925   
C435     C      0.433800000000     0.459270000000     0.436730000000    -0.00286311 
C436     C      0.330430000000     0.426000000000     0.384410000000    -0.0565055  
C437     C      0.545560000000     0.023700000000     0.656350000000    -0.0335226  
C438     C      0.522850000000     0.984370000000     0.844200000000    -0.0307831  
C439     C      0.544720000000     0.030960000000     0.884410000000    -0.0048038  
C440     C      0.530780000000     0.984990000000     0.883140000000    -0.00477156 
C441     C      0.552880000000     0.007580000000     0.766540000000    -0.054092   
C442     C      0.510210000000     0.005710000000     0.737180000000    -0.0534305  
C443     C      0.535000000000     0.007970000000     0.789240000000     0.0616508  
C444     C      0.536680000000     0.028860000000     0.845260000000    -0.0308049  
C445     C      0.528320000000     0.005800000000     0.714440000000     0.0604976  
C446     C      0.516590000000     0.979530000000     0.662090000000    -0.0828677  
C447     C      0.549510000000     0.006210000000     0.729490000000    -0.0555203  
C448     C      0.507120000000     0.977250000000     0.623500000000     0.170734   
C449     C      0.537970000000     0.024310000000     0.617660000000    -0.00206706 
C450     C      0.513290000000     0.006490000000     0.774260000000    -0.0563843  
C451     C      0.495400000000     0.013550000000     0.154440000000    -0.034014   
C452     C      0.489830000000     0.969170000000     0.338540000000    -0.0306497  
C453     C      0.533080000000     0.012480000000     0.369750000000    -0.0047897  
C454     C      0.500460000000     0.966450000000     0.374130000000    -0.00543559 
C455     C      0.516550000000     0.988650000000     0.252400000000    -0.0535564  
C456     C      0.473670000000     0.991730000000     0.237490000000    -0.0538494  
C457     C      0.502160000000     0.989620000000     0.280650000000     0.0613472  
C458     C      0.520790000000     0.013280000000     0.334580000000    -0.0307101  
C459     C      0.487690000000     0.990080000000     0.209250000000     0.0612631  
C460     C      0.476270000000     0.968040000000     0.152410000000    -0.081269   
C461     C      0.509600000000     0.989130000000     0.216970000000    -0.0556542  
C462     C      0.464280000000     0.967100000000     0.116160000000     0.172836   
C463     C      0.483890000000     0.013610000000     0.118120000000    -0.00288077 
C464     C      0.480920000000     0.991790000000     0.272920000000    -0.0559841  
C465     C      0.615050000000     0.059180000000     0.048360000000    -0.0334996  
C466     C      0.740000000000     0.079520000000     0.090380000000    -0.0306715  
C467     C      0.766630000000     0.133860000000     0.084410000000    -0.00502858 
C468     C      0.768500000000     0.093760000000     0.085940000000    -0.00513657 
C469     C      0.690680000000     0.073490000000     0.037360000000    -0.0540559  
C470     C      0.661170000000     0.058810000000     0.099110000000    -0.0537995  
C471     C      0.702240000000     0.079040000000     0.070940000000     0.0616272  
C472     C      0.738260000000     0.117980000000     0.089010000000    -0.0306379  
C473     C      0.649600000000     0.053620000000     0.065520000000     0.0608446  
C474     C      0.610940000000     0.018120000000     0.044600000000    -0.0828509  
C475     C      0.664590000000     0.060910000000     0.034540000000    -0.0557312  
C476     C      0.582220000000     0.005000000000     0.047770000000     0.170146   
C477     C      0.586900000000     0.048170000000     0.052890000000    -0.00237534 
C478     C      0.687270000000     0.071430000000     0.101930000000    -0.0563814  
C479     C      0.191810000000     0.875910000000     0.479950000000    -0.0335802  
C480     C      0.165190000000     0.844400000000     0.667480000000    -0.0309785  
C481     C      0.188120000000     0.888500000000     0.713150000000    -0.00540583 
C482     C      0.174360000000     0.842420000000     0.704660000000    -0.00388556 
C483     C      0.190120000000     0.861870000000     0.592250000000    -0.0535148  
C484     C      0.162400000000     0.882040000000     0.562860000000    -0.0533087  
C485     C      0.178510000000     0.871010000000     0.615130000000     0.0611776  
C486     C      0.179220000000     0.888340000000     0.674920000000    -0.0305629  
C487     C      0.174130000000     0.873010000000     0.539970000000     0.0606683  
C488     C      0.146770000000     0.853860000000     0.489240000000    -0.0831397  
C489     C      0.187490000000     0.862220000000     0.555220000000    -0.0549523  
C490     C      0.141910000000     0.858880000000     0.450630000000     0.170909   
C491     C      0.188830000000     0.881600000000     0.441130000000    -0.00266849 
C492     C      0.164010000000     0.880560000000     0.599960000000    -0.0551553  
C493     C      0.172230000000     0.820610000000     0.987990000000    -0.0335749  
C494     C      0.134480000000     0.820940000000     0.173290000000    -0.0309574  
C495     C      0.162460000000     0.803900000000     0.216480000000    -0.0043908  
C496     C      0.124550000000     0.808880000000     0.209820000000    -0.00450208 
C497     C      0.140620000000     0.801840000000     0.093510000000    -0.0539614  
C498     C      0.180550000000     0.848730000000     0.074920000000    -0.0534836  
C499     C      0.155470000000     0.818310000000     0.120490000000     0.0616895  
C500     C      0.171090000000     0.815650000000     0.179470000000    -0.031087   
C501     C      0.166100000000     0.832000000000     0.047920000000     0.0607746  
C502     C      0.155990000000     0.848750000000     0.996280000000    -0.082866   
C503     C      0.145550000000     0.808690000000     0.057560000000    -0.0555467  
C504     C      0.166400000000     0.861720000000     0.960190000000     0.170588   
C505     C      0.183500000000     0.831930000000     0.951730000000    -0.00236663 
C506     C      0.175100000000     0.842190000000     0.110900000000    -0.0562046  
C507     C      0.400130000000     0.941050000000     0.931430000000    -0.0333967  
C508     C      0.282990000000     0.928640000000     0.862680000000    -0.0306949  
C509     C      0.262220000000     0.879350000000     0.830240000000    -0.00505167 
C510     C      0.261260000000     0.919520000000     0.836170000000    -0.0051715  
C511     C      0.344090000000     0.938300000000     0.858080000000    -0.0542094  
C512     C      0.342610000000     0.936290000000     0.932770000000    -0.053722   
C513     C      0.320950000000     0.927480000000     0.875640000000     0.0617018  
C514     C      0.283810000000     0.889670000000     0.857110000000    -0.0307463  
C515     C      0.365760000000     0.947170000000     0.915230000000     0.0608123  
C516     C      0.406270000000     0.982830000000     0.929610000000    -0.0826268  
C517     C      0.366360000000     0.947960000000     0.877590000000    -0.0556847  
C518     C      0.427910000000     0.992690000000     0.956730000000     0.169684   
C519     C      0.420480000000     0.948070000000     0.959560000000    -0.00197748 
C520     C      0.320330000000     0.926390000000     0.913250000000    -0.0563902  
C521     C      0.840800000000     0.685660000000     0.960690000000    -0.0333376  
C522     C      0.831030000000     0.648670000000     0.773050000000    -0.0305279  
C523     C      0.833780000000     0.692910000000     0.740530000000    -0.00476736 
C524     C      0.824620000000     0.648350000000     0.733510000000    -0.00552395 
C525     C      0.807860000000     0.663020000000     0.852420000000    -0.0537482  
C526     C      0.849160000000     0.663810000000     0.884790000000    -0.0536019  
C527     C      0.827170000000     0.664380000000     0.831060000000     0.0615786  
C528     C      0.840290000000     0.691660000000     0.779660000000    -0.0306621  
C529     C      0.829580000000     0.661880000000     0.906120000000     0.0608349  
C530     C      0.808870000000     0.642360000000     0.962330000000    -0.083233   
C531     C      0.809150000000     0.662180000000     0.889640000000    -0.0555339  
C532     C      0.814230000000     0.639150000000     0.001560000000     0.170324   
C533     C      0.849840000000     0.685330000000     0.998500000000    -0.000243008
C534     C      0.848240000000     0.665460000000     0.847640000000    -0.0561795  
C535     C      0.896830000000     0.691060000000     0.463740000000    -0.0335332  
C536     C      0.842320000000     0.649770000000     0.287460000000    -0.0304036  
C537     C      0.882260000000     0.683530000000     0.238930000000    -0.00378425 
C538     C      0.835910000000     0.649560000000     0.247860000000    -0.00493161 
C539     C      0.878900000000     0.703920000000     0.347710000000    -0.0536086  
C540     C      0.863090000000     0.665420000000     0.397610000000    -0.0525365  
C541     C      0.867130000000     0.679110000000     0.335720000000     0.0615888  
C542     C      0.885850000000     0.679840000000     0.278340000000    -0.030587   
C543     C      0.874690000000     0.690240000000     0.409660000000     0.059997   
C544     C      0.880530000000     0.719020000000     0.459540000000    -0.0835657  
C545     C      0.883220000000     0.709570000000     0.384040000000    -0.0540924  
C546     C      0.878130000000     0.719910000000     0.500530000000     0.171083   
C547     C      0.891240000000     0.685750000000     0.503440000000     0.00345317 
C548     C      0.859910000000     0.659850000000     0.361140000000    -0.0555438  
C549     C      0.750780000000     0.653050000000     0.575380000000    -0.0333131  
C550     C      0.628750000000     0.556680000000     0.507590000000    -0.0305054  
C551     C      0.599920000000     0.582420000000     0.512360000000    -0.00495593 
C552     C      0.600180000000     0.541190000000     0.508470000000    -0.00476794 
C553     C      0.672460000000     0.595700000000     0.569640000000    -0.053983   
C554     C      0.706960000000     0.614360000000     0.513460000000    -0.0538278  
C555     C      0.663810000000     0.592770000000     0.534390000000     0.0616814  
C556     C      0.628550000000     0.595680000000     0.511370000000    -0.0306226  
C557     C      0.715610000000     0.617210000000     0.548730000000     0.0608211  
C558     C      0.750180000000     0.613710000000     0.572860000000    -0.0827251  
C559     C      0.698110000000     0.607840000000     0.576890000000    -0.055762   
C560     C      0.778920000000     0.626410000000     0.573820000000     0.170085   
C561     C      0.779320000000     0.668100000000     0.575200000000    -0.00186656 
C562     C      0.681270000000     0.602270000000     0.506220000000    -0.0564674  
C563     C      0.069020000000     0.779280000000     0.795680000000    -0.0336158  
C564     C      0.960470000000     0.759940000000     0.689780000000    -0.0304341  
C565     C      0.944510000000     0.711240000000     0.657790000000    -0.00534007 
C566     C      0.943630000000     0.751730000000     0.656710000000    -0.00531254 
C567     C      0.020530000000     0.772240000000     0.706860000000    -0.0539324  
C568     C      0.008020000000     0.765670000000     0.779450000000    -0.054035   
C569     C      0.995320000000     0.758550000000     0.717000000000     0.0617256  
C570     C      0.961420000000     0.720980000000     0.690750000000    -0.0304279  
C571     C      0.033240000000     0.779360000000     0.769300000000     0.0611931  
C572     C      0.066060000000     0.817370000000     0.795920000000    -0.0835412  
C573     C      0.039390000000     0.782620000000     0.732690000000    -0.0557205  
C574     C      0.084080000000     0.827720000000     0.827870000000     0.170688   
C575     C      0.086910000000     0.788720000000     0.827580000000    -0.00309382 
C576     C      0.989140000000     0.755340000000     0.753590000000    -0.0562821  
H1       H      0.777580000000     0.044530000000     0.736120000000     0.0413443  
H2       H      0.697510000000     0.954160000000     0.758160000000     0.0355904  
H3       H      0.769050000000     0.960040000000     0.757780000000     0.0500943  
H4       H      0.768440000000     0.071170000000     0.612490000000     0.0373275  
H5       H      0.700640000000     0.934150000000     0.812160000000     0.0358594  
H6       H      0.809180000000     0.041180000000     0.659180000000     0.0355208  
H7       H      0.745710000000     0.050820000000     0.666900000000     0.0352148  
H8       H      0.834930000000     0.084290000000     0.635090000000     0.0438519  
H9       H      0.759420000000     0.008480000000     0.776670000000     0.0447018  
H10      H      0.678200000000     0.911000000000     0.782520000000     0.0422577  
H11      H      0.749130000000     0.994840000000     0.645630000000     0.0451234  
H12      H      0.702620000000     0.933330000000     0.730170000000     0.0397219  
H13      H      0.770690000000     0.094430000000     0.643450000000     0.0418217  
H14      H      0.747870000000     0.937640000000     0.811910000000     0.000251512
H15      H      0.810730000000     0.064600000000     0.689590000000     0.0393342  
H16      H      0.772630000000     0.070380000000     0.694270000000     0.0389728  
H17      H      0.731470000000     0.958790000000     0.686120000000     0.0416837  
H18      H      0.744690000000     0.937070000000     0.729600000000     0.060126   
H19      H      0.808380000000     0.064760000000     0.607450000000     0.0388782  
H20      H      0.770250000000     0.923000000000     0.788960000000     0.137226   
H21      H      0.926670000000     0.295780000000     0.551010000000     0.0411599  
H22      H      0.932470000000     0.380010000000     0.547930000000     0.0357169  
H23      H      0.005140000000     0.389130000000     0.555540000000     0.0494778  
H24      H      0.886750000000     0.261420000000     0.673390000000     0.0364919  
H25      H      0.955870000000     0.407330000000     0.499390000000     0.037201   
H26      H      0.952970000000     0.281480000000     0.617630000000     0.0351054  
H27      H      0.888730000000     0.289670000000     0.626590000000     0.0346937  
H28      H      0.926840000000     0.235600000000     0.630710000000     0.0418325  
H29      H      0.946470000000     0.336140000000     0.519880000000     0.0445855  
H30      H      0.950750000000     0.425130000000     0.532740000000     0.0447175  
H31      H      0.945560000000     0.333960000000     0.652440000000     0.0446647  
H32      H      0.954140000000     0.400760000000     0.581040000000     0.0410625  
H33      H      0.862250000000     0.244660000000     0.641380000000     0.0415492  
H34      H      0.007910000000     0.415160000000     0.505870000000     0.000240445
H35      H      0.927550000000     0.264960000000     0.586480000000     0.038424   
H36      H      0.889450000000     0.269680000000     0.592000000000     0.0389661  
H37      H      0.964550000000     0.374290000000     0.621360000000     0.0416292  
H38      H      0.995730000000     0.405500000000     0.586000000000     0.0599474  
H39      H      0.928170000000     0.255290000000     0.666940000000     0.0368358  
H40      H      0.041120000000     0.434340000000     0.538950000000     0.137371   
H41      H      0.089910000000     0.684750000000     0.353460000000     0.0410821  
H42      H      0.097320000000     0.621950000000     0.437520000000     0.0353183  
H43      H      0.024900000000     0.613790000000     0.436370000000     0.0498788  
H44      H      0.147890000000     0.768740000000     0.412540000000     0.0395033  
H45      H      0.069890000000     0.578710000000     0.423840000000     0.0384841  
H46      H      0.069310000000     0.719950000000     0.394330000000     0.0356722  
H47      H      0.141660000000     0.727830000000     0.399620000000     0.0349149  
H48      H      0.087260000000     0.761430000000     0.362920000000     0.0432416  
H49      H      0.071190000000     0.640070000000     0.367340000000     0.0451411  
H50      H      0.080360000000     0.580790000000     0.469030000000     0.0414696  
H51      H      0.095180000000     0.701470000000     0.466040000000     0.0454011  
H52      H      0.081500000000     0.619950000000     0.478950000000     0.0389834  
H53      H      0.159800000000     0.769380000000     0.368590000000     0.0413454  
H54      H      0.017070000000     0.572320000000     0.424690000000     0.00571882 
H55      H      0.085910000000     0.721970000000     0.353650000000     0.0377014  
H56      H      0.127720000000     0.726570000000     0.356720000000     0.037564   
H57      H      0.076670000000     0.656880000000     0.479940000000     0.0415366  
H58      H      0.040310000000     0.615960000000     0.478210000000     0.0597079  
H59      H      0.096950000000     0.763230000000     0.408540000000     0.0425336  
H60      H      0.990020000000     0.570890000000     0.463100000000     0.13977    
H61      H      0.590960000000     0.656660000000     0.952710000000     0.0413848  
H62      H      0.660510000000     0.724180000000     0.868890000000     0.035494   
H63      H      0.589590000000     0.719250000000     0.863230000000     0.0493967  
H64      H      0.564390000000     0.570620000000     0.897660000000     0.0399959  
H65      H      0.669830000000     0.765990000000     0.880320000000     0.0375079  
H66      H      0.536960000000     0.622390000000     0.911150000000     0.0356544  
H67      H      0.599390000000     0.611090000000     0.910860000000     0.0354839  
H68      H      0.511510000000     0.581470000000     0.943510000000     0.043562   
H69      H      0.614720000000     0.701200000000     0.936950000000     0.0447534  
H70      H      0.679540000000     0.765280000000     0.835500000000     0.0408279  
H71      H      0.582960000000     0.637300000000     0.840940000000     0.0453514  
H72      H      0.646350000000     0.722890000000     0.826210000000     0.0390257  
H73      H      0.573490000000     0.569880000000     0.942960000000     0.0429663  
H74      H      0.616720000000     0.762590000000     0.874200000000     0.00120449 
H75      H      0.550280000000     0.619840000000     0.952770000000     0.0376853  
H76      H      0.586100000000     0.613430000000     0.952580000000     0.0386068  
H77      H      0.607370000000     0.681730000000     0.825200000000     0.0414781  
H78      H      0.605720000000     0.719410000000     0.823080000000     0.059635   
H79      H      0.519160000000     0.578870000000     0.898140000000     0.0421026  
H80      H      0.590960000000     0.758310000000     0.831640000000     0.138245   
H81      H      0.241440000000     0.040400000000     0.250630000000     0.0414531  
H82      H      0.166640000000     0.947900000000     0.261550000000     0.0355591  
H83      H      0.239150000000     0.956250000000     0.261080000000     0.0494603  
H84      H      0.237400000000     0.069750000000     0.124780000000     0.0381043  
H85      H      0.168320000000     0.926150000000     0.313970000000     0.0372468  
H86      H      0.281320000000     0.046590000000     0.183300000000     0.0349748  
H87      H      0.212270000000     0.045920000000     0.175330000000     0.0357245  
H88      H      0.304530000000     0.091160000000     0.163510000000     0.0419404  
H89      H      0.223680000000     0.002140000000     0.286850000000     0.0448588  
H90      H      0.148370000000     0.903540000000     0.281650000000     0.041654   
H91      H      0.223070000000     0.996140000000     0.154580000000     0.0449478  
H92      H      0.173460000000     0.928950000000     0.232140000000     0.0388075  
H93      H      0.234890000000     0.090700000000     0.155560000000     0.0445158  
H94      H      0.219280000000     0.931100000000     0.313020000000     0.000560995
H95      H      0.275930000000     0.067130000000     0.211530000000     0.0387889  
H96      H      0.235470000000     0.066670000000     0.206930000000     0.0401353  
H97      H      0.205050000000     0.957900000000     0.190720000000     0.041126   
H98      H      0.215420000000     0.934200000000     0.231330000000     0.059256   
H99      H      0.283850000000     0.070070000000     0.130190000000     0.0367118  
H100     H      0.240510000000     0.917010000000     0.285080000000     0.137513   
H101     H      0.416990000000     0.373710000000     0.089320000000     0.0409344  
H102     H      0.333350000000     0.284560000000     0.090570000000     0.0361281  
H103     H      0.402500000000     0.285440000000     0.086880000000     0.0497087  
H104     H      0.413440000000     0.415270000000     0.974600000000     0.0388446  
H105     H      0.331970000000     0.257660000000     0.138410000000     0.0362544  
H106     H      0.450940000000     0.376970000000     0.012940000000     0.034993   
H107     H      0.390690000000     0.391020000000     0.025970000000     0.0355491  
H108     H      0.479570000000     0.421800000000     0.997050000000     0.0417425  
H109     H      0.395430000000     0.333300000000     0.120400000000     0.0445502  
H110     H      0.310820000000     0.238890000000     0.103810000000     0.0447364  
H111     H      0.390760000000     0.336040000000     0.988230000000     0.0453715  
H112     H      0.338090000000     0.266200000000     0.057300000000     0.0418982  
H113     H      0.419440000000     0.436440000000     0.010980000000     0.0417956  
H114     H      0.379370000000     0.257600000000     0.135480000000     0.000196334
H115     H      0.452730000000     0.398550000000     0.046860000000     0.0380914  
H116     H      0.417790000000     0.406590000000     0.054560000000     0.0375565  
H117     H      0.369610000000     0.295660000000     0.019160000000     0.0425478  
H118     H      0.378420000000     0.267180000000     0.054750000000     0.0615129  
H119     H      0.455040000000     0.404970000000     0.965160000000     0.0379658  
H120     H      0.399310000000     0.243060000000     0.105140000000     0.137422   
H121     H      0.678870000000     0.782130000000     0.606240000000     0.0411656  
H122     H      0.647000000000     0.782650000000     0.482620000000     0.0363729  
H123     H      0.725560000000     0.831810000000     0.486490000000     0.0507427  
H124     H      0.659090000000     0.840390000000     0.685570000000     0.0405684  
H125     H      0.666310000000     0.773100000000     0.432670000000     0.0364348  
H126     H      0.719280000000     0.830180000000     0.644330000000     0.0357251  
H127     H      0.643370000000     0.811820000000     0.636420000000     0.0353467  
H128     H      0.714950000000     0.826820000000     0.711860000000     0.0433741  
H129     H      0.681550000000     0.775430000000     0.542130000000     0.0444459  
H130     H      0.647300000000     0.785620000000     0.416510000000     0.0448773  
H131     H      0.684100000000     0.853030000000     0.583250000000     0.0452379  
H132     H      0.659290000000     0.814430000000     0.467570000000     0.0429762  
H133     H      0.640120000000     0.809780000000     0.704010000000     0.0426105  
H134     H      0.715670000000     0.804180000000     0.434840000000    -0.000459787
H135     H      0.694700000000     0.800750000000     0.661280000000     0.0370116  
H136     H      0.651520000000     0.790370000000     0.656770000000     0.0387577  
H137     H      0.685060000000     0.845570000000     0.519130000000     0.0422619  
H138     H      0.706020000000     0.843680000000     0.469660000000     0.0610778  
H139     H      0.715120000000     0.853310000000     0.692170000000     0.0418923  
H140     H      0.747070000000     0.841300000000     0.424750000000     0.136579   
H141     H      0.678090000000     0.823740000000     0.027370000000     0.0412786  
H142     H      0.716920000000     0.881040000000     0.146440000000     0.0358141  
H143     H      0.639770000000     0.827510000000     0.141580000000     0.0486577  
H144     H      0.714980000000     0.890460000000     0.934480000000     0.0375174  
H145     H      0.713640000000     0.857850000000     0.197840000000     0.0373905  
H146     H      0.644010000000     0.851400000000     0.985110000000     0.0351513  
H147     H      0.721000000000     0.872670000000     0.988590000000     0.0355034  
H148     H      0.643190000000     0.844690000000     0.919040000000     0.0412194  
H149     H      0.677490000000     0.819370000000     0.092510000000     0.0449491  
H150     H      0.711660000000     0.883870000000     0.214480000000     0.040764   
H151     H      0.681910000000     0.895040000000     0.039110000000     0.0450338  
H152     H      0.693590000000     0.888470000000     0.161270000000     0.0378147  
H153     H      0.720810000000     0.865700000000     0.922630000000     0.0426609  
H154     H      0.651880000000     0.814050000000     0.193140000000     0.00409156 
H155     H      0.653300000000     0.828920000000     0.972920000000     0.0388694  
H156     H      0.698420000000     0.841380000000     0.974690000000     0.0383048  
H157     H      0.679540000000     0.889840000000     0.104240000000     0.0415114  
H158     H      0.650460000000     0.858500000000     0.158320000000     0.059648   
H159     H      0.663460000000     0.876580000000     0.932380000000     0.0383599  
H160     H      0.618480000000     0.815960000000     0.206010000000     0.139662   
H161     H      0.751730000000     0.744020000000     0.274080000000     0.0411671  
H162     H      0.749350000000     0.682290000000     0.177720000000     0.0357753  
H163     H      0.815580000000     0.752740000000     0.175510000000     0.0491718  
H164     H      0.686400000000     0.767520000000     0.233970000000     0.0393642  
H165     H      0.780790000000     0.671060000000     0.183650000000     0.0379324  
H166     H      0.767150000000     0.800080000000     0.241040000000     0.0353469  
H167     H      0.695920000000     0.734450000000     0.238790000000     0.0351085  
H168     H      0.749670000000     0.820780000000     0.280600000000     0.0425965  
H169     H      0.773880000000     0.723170000000     0.250740000000     0.045101   
H170     H      0.770790000000     0.665020000000     0.138110000000     0.0428688  
H171     H      0.737880000000     0.758960000000     0.166400000000     0.0453351  
H172     H      0.761660000000     0.698530000000     0.136140000000     0.0398576  
H173     H      0.678780000000     0.755670000000     0.278660000000     0.0407737  
H174     H      0.832590000000     0.725940000000     0.179660000000     0.00261837 
H175     H      0.752970000000     0.783550000000     0.281880000000     0.0376821  
H176     H      0.712290000000     0.745940000000     0.280540000000     0.037509   
H177     H      0.759520000000     0.737640000000     0.143050000000     0.0418639  
H178     H      0.798560000000     0.738630000000     0.135110000000     0.0595962  
H179     H      0.738530000000     0.815450000000     0.235450000000     0.0384541  
H180     H      0.851720000000     0.752290000000     0.136660000000     0.138946   
H181     H      0.592050000000     0.942740000000     0.396100000000     0.0414164  
H182     H      0.670940000000     0.928740000000     0.381770000000     0.0358737  
H183     H      0.598520000000     0.864890000000     0.384760000000     0.0500263  
H184     H      0.600920000000     0.983420000000     0.516080000000     0.0379238  
H185     H      0.668460000000     0.904930000000     0.329480000000     0.0383962  
H186     H      0.559870000000     0.910670000000     0.474430000000     0.0355289  
H187     H      0.623100000000     0.983200000000     0.462510000000     0.0351427  
H188     H      0.534070000000     0.928770000000     0.495740000000     0.0440054  
H189     H      0.609690000000     0.922520000000     0.359020000000     0.0453992  
H190     H      0.688970000000     0.902450000000     0.361100000000     0.0434308  
H191     H      0.619320000000     0.924200000000     0.490820000000     0.0450469  
H192     H      0.664740000000     0.903230000000     0.411370000000     0.0393606  
H193     H      0.597740000000     0.002530000000     0.482590000000     0.0416403  
H194     H      0.617700000000     0.859590000000     0.331820000000     0.0044857  
H195     H      0.558360000000     0.931620000000     0.442130000000     0.0393222  
H196     H      0.595980000000     0.974680000000     0.434880000000     0.0384061  
H197     H      0.636450000000     0.903480000000     0.453830000000     0.0413915  
H198     H      0.622800000000     0.866670000000     0.413570000000     0.0596793  
H199     H      0.560460000000     0.936340000000     0.524090000000     0.0394198  
H200     H      0.596660000000     0.824350000000     0.359880000000     0.139151   
H201     H      0.021170000000     0.552770000000     0.786870000000     0.0406082  
H202     H      0.062660000000     0.545780000000     0.662890000000     0.036071   
H203     H      0.983650000000     0.511590000000     0.670790000000     0.050039   
H204     H      0.064490000000     0.526700000000     0.874580000000     0.0380471  
H205     H      0.048010000000     0.558750000000     0.611400000000     0.0361371  
H206     H      0.990890000000     0.488370000000     0.821460000000     0.0344699  
H207     H      0.064240000000     0.550870000000     0.825290000000     0.0347393  
H208     H      0.988980000000     0.488690000000     0.889130000000     0.0389813  
H209     H      0.019750000000     0.558230000000     0.722110000000     0.044613   
H210     H      0.059640000000     0.538750000000     0.597160000000     0.0432136  
H211     H      0.031340000000     0.489420000000     0.768750000000     0.0447533  
H212     H      0.043730000000     0.513260000000     0.650820000000     0.0420566  
H213     H      0.060660000000     0.551250000000     0.893190000000     0.0404048  
H214     H      0.996390000000     0.536420000000     0.616050000000     0.00257402 
H215     H      0.996550000000     0.517540000000     0.840450000000     0.0372161  
H216     H      0.038020000000     0.553000000000     0.842450000000     0.035935   
H217     H      0.028210000000     0.493810000000     0.704250000000     0.042373   
H218     H      0.997180000000     0.493060000000     0.656230000000     0.0614282  
H219     H      0.009570000000     0.478990000000     0.870580000000     0.0394451  
H220     H      0.960930000000     0.501990000000     0.609360000000     0.138509   
H221     H      0.989800000000     0.457070000000     0.205230000000     0.040273   
H222     H      0.042570000000     0.463300000000     0.337510000000     0.0350269  
H223     H      0.990070000000     0.486930000000     0.314110000000     0.0488355  
H224     H      0.042620000000     0.458150000000     0.112340000000     0.0362448  
H225     H      0.011910000000     0.447480000000     0.384940000000     0.0348375  
H226     H      0.057890000000     0.520910000000     0.176770000000     0.0337734  
H227     H      0.011930000000     0.442730000000     0.159730000000     0.0343893  
H228     H      0.060450000000     0.528500000000     0.111380000000     0.0398672  
H229     H      0.981910000000     0.452840000000     0.269060000000     0.0430242  
H230     H      0.040900000000     0.471910000000     0.402420000000     0.0414465  
H231     H      0.069460000000     0.500000000000     0.225360000000     0.043204   
H232     H      0.050470000000     0.495190000000     0.346820000000     0.0398211  
H233     H      0.012690000000     0.449980000000     0.093630000000     0.0411086  
H234     H      0.976430000000     0.462430000000     0.369100000000     0.00117965 
H235     H      0.027340000000     0.508860000000     0.156970000000     0.039729   
H236     H      0.000570000000     0.463630000000     0.147020000000     0.038066   
H237     H      0.061410000000     0.498190000000     0.289010000000     0.0405294  
H238     H      0.020160000000     0.508700000000     0.332710000000     0.061246   
H239     H      0.073980000000     0.509770000000     0.124830000000     0.0378405  
H240     H      0.969600000000     0.493750000000     0.370240000000     0.138544   
H241     H      0.944230000000     0.570290000000     0.000790000000     0.0407715  
H242     H      0.874310000000     0.570030000000     0.082830000000     0.0353468  
H243     H      0.941800000000     0.639140000000     0.074570000000     0.0491981  
H244     H      0.965020000000     0.509850000000     0.063590000000     0.0379278  
H245     H      0.860850000000     0.598600000000     0.064730000000     0.0369926  
H246     H      0.998550000000     0.589560000000     0.048630000000     0.0348145  
H247     H      0.932670000000     0.518570000000     0.045890000000     0.034712   
H248     H      0.022950000000     0.571020000000     0.021250000000     0.0406841  
H249     H      0.919890000000     0.591400000000     0.010940000000     0.0446229  
H250     H      0.853380000000     0.591930000000     0.111090000000     0.0415951  
H251     H      0.952430000000     0.566010000000     0.114580000000     0.0448564  
H252     H      0.889540000000     0.587690000000     0.122460000000     0.0388902  
H253     H      0.957170000000     0.500110000000     0.018040000000     0.0405242  
H254     H      0.910460000000     0.649780000000     0.059700000000     0.00183367 
H255     H      0.986330000000     0.574140000000     0.006450000000     0.0373676  
H256     H      0.948430000000     0.533350000000     0.004860000000     0.0370335  
H257     H      0.928320000000     0.587290000000     0.124750000000     0.0413314  
H258     H      0.928380000000     0.626840000000     0.117700000000     0.0595307  
H259     H      0.012160000000     0.560770000000     0.065890000000     0.0378278  
H260     H      0.937560000000     0.677580000000     0.095870000000     0.138561   
H261     H      0.278280000000     0.114280000000     0.842820000000     0.0413478  
H262     H      0.331110000000     0.122480000000     0.973770000000     0.0355421  
H263     H      0.287700000000     0.156160000000     0.947200000000     0.0490243  
H264     H      0.325950000000     0.100460000000     0.754590000000     0.0373057  
H265     H      0.302230000000     0.112680000000     0.022520000000     0.034857   
H266     H      0.346940000000     0.170380000000     0.805080000000     0.0340121  
H267     H      0.296890000000     0.091960000000     0.802890000000     0.0354652  
H268     H      0.348280000000     0.171620000000     0.738770000000     0.0405944  
H269     H      0.272380000000     0.116140000000     0.906770000000     0.0438848  
H270     H      0.332870000000     0.135340000000     0.037590000000     0.0425359  
H271     H      0.358420000000     0.151480000000     0.858520000000     0.0437517  
H272     H      0.343910000000     0.155720000000     0.980080000000     0.040952   
H273     H      0.296300000000     0.093070000000     0.735660000000     0.0439669  
H274     H      0.271840000000     0.135430000000     0.004230000000     0.00196308 
H275     H      0.316200000000     0.158100000000     0.785770000000     0.0404541  
H276     H      0.287180000000     0.112940000000     0.784560000000     0.0397698  
H277     H      0.352660000000     0.155760000000     0.921760000000     0.0412345  
H278     H      0.319080000000     0.174900000000     0.964060000000     0.0621285  
H279     H      0.360730000000     0.153250000000     0.757630000000     0.0381484  
H280     H      0.273160000000     0.171280000000     0.002470000000     0.138881   
H281     H      0.307860000000     0.184240000000     0.430950000000     0.0409213  
H282     H      0.348440000000     0.191330000000     0.303550000000     0.0355341  
H283     H      0.269500000000     0.159960000000     0.306320000000     0.0496016  
H284     H      0.349780000000     0.144630000000     0.496060000000     0.037427   
H285     H      0.336550000000     0.212200000000     0.259020000000     0.0344988  
H286     H      0.276220000000     0.117760000000     0.454610000000     0.0352051  
H287     H      0.352380000000     0.175240000000     0.453610000000     0.0348156  
H288     H      0.278160000000     0.113650000000     0.521150000000     0.0422483  
H289     H      0.306360000000     0.197710000000     0.369740000000     0.0442517  
H290     H      0.348520000000     0.194470000000     0.237320000000     0.0415488  
H291     H      0.312630000000     0.121550000000     0.389690000000     0.0448466  
H292     H      0.329220000000     0.161400000000     0.282370000000     0.0408225  
H293     H      0.354780000000     0.171850000000     0.520050000000     0.0416091  
H294     H      0.286470000000     0.192340000000     0.260000000000     0.000332094
H295     H      0.285420000000     0.146520000000     0.478240000000     0.0385871  
H296     H      0.329760000000     0.179920000000     0.477970000000     0.037727   
H297     H      0.309330000000     0.133990000000     0.328630000000     0.0413208  
H298     H      0.282150000000     0.142530000000     0.284740000000     0.0597863  
H299     H      0.297840000000     0.105160000000     0.496500000000     0.0407654  
H300     H      0.250140000000     0.161030000000     0.245110000000     0.137328   
H301     H      0.440470000000     0.045040000000     0.590950000000     0.0411603  
H302     H      0.420730000000     0.116960000000     0.597020000000     0.0350559  
H303     H      0.355420000000     0.045610000000     0.592570000000     0.0501265  
H304     H      0.481430000000     0.054650000000     0.469110000000     0.0366353  
H305     H      0.393680000000     0.114690000000     0.645730000000     0.0359375  
H306     H      0.414280000000     0.005050000000     0.521400000000     0.0351458  
H307     H      0.477280000000     0.078250000000     0.517880000000     0.0346166  
H308     H      0.441440000000     0.986870000000     0.506080000000     0.0418489  
H309     H      0.416840000000     0.061000000000     0.623760000000     0.0445328  
H310     H      0.395380000000     0.136620000000     0.612810000000     0.0415497  
H311     H      0.417030000000     0.061870000000     0.491150000000     0.0446421  
H312     H      0.397030000000     0.111220000000     0.564080000000     0.0394463  
H313     H      0.505130000000     0.061100000000     0.502060000000     0.0411869  
H314     H      0.349900000000     0.067700000000     0.642320000000     9.72182e-05
H315     H      0.439430000000     0.013330000000     0.552910000000     0.0386725  
H316     H      0.476650000000     0.056550000000     0.550780000000     0.0384068  
H317     H      0.393760000000     0.078210000000     0.523920000000     0.0414628  
H318     H      0.358950000000     0.069290000000     0.561140000000     0.0599526  
H319     H      0.440170000000     0.006470000000     0.471640000000     0.0367277  
H320     H      0.314970000000     0.045130000000     0.614020000000     0.137344   
H321     H      0.103180000000     0.456630000000     0.866400000000     0.0410888  
H322     H      0.177090000000     0.434910000000     0.843220000000     0.0355687  
H323     H      0.101390000000     0.376830000000     0.839590000000     0.0499519  
H324     H      0.108150000000     0.483600000000     0.995190000000     0.037306   
H325     H      0.171750000000     0.412630000000     0.787650000000     0.0364018  
H326     H      0.065490000000     0.417590000000     0.934850000000     0.034803   
H327     H      0.132090000000     0.488000000000     0.941570000000     0.0348504  
H328     H      0.040760000000     0.435650000000     0.960910000000     0.0414086  
H329     H      0.119870000000     0.437930000000     0.824600000000     0.0445877  
H330     H      0.190970000000     0.406550000000     0.817360000000     0.0426059  
H331     H      0.123320000000     0.425530000000     0.955060000000     0.0446247  
H332     H      0.167590000000     0.407070000000     0.869420000000     0.0392942  
H333     H      0.107860000000     0.507100000000     0.967220000000     0.0410748  
H334     H      0.121230000000     0.373840000000     0.785170000000    -0.000122131
H335     H      0.067860000000     0.443460000000     0.909210000000     0.0385474  
H336     H      0.107020000000     0.484800000000     0.913040000000     0.0378127  
H337     H      0.139750000000     0.406620000000     0.913310000000     0.0411818  
H338     H      0.123280000000     0.373220000000     0.867460000000     0.0598289  
H339     H      0.063960000000     0.436460000000     0.990810000000     0.0366409  
H340     H      0.094370000000     0.337260000000     0.805470000000     0.13668    
H341     H      0.218650000000     0.244430000000     0.655420000000     0.0406476  
H342     H      0.292660000000     0.229320000000     0.654640000000     0.0350108  
H343     H      0.224080000000     0.161080000000     0.662750000000     0.0498835  
H344     H      0.234060000000     0.292390000000     0.773160000000     0.0373137  
H345     H      0.292860000000     0.201930000000     0.608510000000     0.0355533  
H346     H      0.179760000000     0.223330000000     0.725170000000     0.0351235  
H347     H      0.254160000000     0.284290000000     0.723990000000     0.0348668  
H348     H      0.163680000000     0.253050000000     0.737930000000     0.0411358  
H349     H      0.235410000000     0.220360000000     0.625800000000     0.0442496  
H350     H      0.315500000000     0.206560000000     0.642210000000     0.0415342  
H351     H      0.237250000000     0.226340000000     0.758100000000     0.0451399  
H352     H      0.288820000000     0.207510000000     0.689540000000     0.0395554  
H353     H      0.238420000000     0.313770000000     0.737720000000     0.0415372  
H354     H      0.247290000000     0.155520000000     0.614680000000     0.000206929
H355     H      0.188740000000     0.247870000000     0.692600000000     0.0370413  
H356     H      0.231620000000     0.283130000000     0.692110000000     0.0374558  
H357     H      0.254370000000     0.202660000000     0.728560000000     0.0413954  
H358     H      0.248580000000     0.167880000000     0.694690000000     0.0596599  
H359     H      0.181280000000     0.249680000000     0.773530000000     0.0382127  
H360     H      0.227540000000     0.121790000000     0.646480000000     0.137597   
H361     H      0.452620000000     0.464910000000     0.673460000000     0.0407905  
H362     H      0.496890000000     0.463880000000     0.796550000000     0.035596   
H363     H      0.453180000000     0.499470000000     0.795670000000     0.0499268  
H364     H      0.525730000000     0.496310000000     0.590930000000     0.0379904  
H365     H      0.468180000000     0.448120000000     0.846820000000     0.0346964  
H366     H      0.486700000000     0.530170000000     0.644560000000     0.0349063  
H367     H      0.500200000000     0.469430000000     0.637590000000     0.0347579  
H368     H      0.486500000000     0.532360000000     0.576950000000     0.0401762  
H369     H      0.443750000000     0.455760000000     0.737350000000     0.044426   
H370     H      0.499660000000     0.466350000000     0.862850000000     0.0415164  
H371     H      0.525240000000     0.527330000000     0.699300000000     0.0450162  
H372     H      0.510810000000     0.495520000000     0.812970000000     0.0404064  
H373     H      0.498640000000     0.471510000000     0.569860000000     0.0406146  
H374     H      0.440000000000     0.471080000000     0.846870000000     0.000627591
H375     H      0.464370000000     0.501450000000     0.623100000000     0.0376524  
H376     H      0.471950000000     0.466900000000     0.619170000000     0.0362388  
H377     H      0.515770000000     0.519200000000     0.763080000000     0.0416386  
H378     H      0.485010000000     0.516700000000     0.811740000000     0.0601696  
H379     H      0.516390000000     0.541960000000     0.596970000000     0.0397326  
H380     H      0.439030000000     0.505040000000     0.858730000000     0.137591   
H381     H      0.497540000000     0.502180000000     0.262020000000     0.0411608  
H382     H      0.495350000000     0.537720000000     0.143710000000     0.0351602  
H383     H      0.546870000000     0.511450000000     0.137870000000     0.0489164  
H384     H      0.556260000000     0.574120000000     0.347250000000     0.0378334  
H385     H      0.479570000000     0.508760000000     0.095490000000     0.0383442  
H386     H      0.549190000000     0.510460000000     0.295780000000     0.0350252  
H387     H      0.528030000000     0.566200000000     0.297170000000     0.0354678  
H388     H      0.546350000000     0.507340000000     0.362440000000     0.0414974  
H389     H      0.489360000000     0.494430000000     0.197850000000     0.0443918  
H390     H      0.494720000000     0.539340000000     0.076140000000     0.0400554  
H391     H      0.568090000000     0.568320000000     0.238920000000     0.0447756  
H392     H      0.525640000000     0.556390000000     0.123320000000     0.0394858  
H393     H      0.525230000000     0.564010000000     0.363880000000     0.0438633  
H394     H      0.520670000000     0.490460000000     0.088530000000     0.00130562 
H395     H      0.518620000000     0.502360000000     0.312780000000     0.0389052  
H396     H      0.506090000000     0.535300000000     0.313270000000     0.0404486  
H397     H      0.559060000000     0.561580000000     0.174810000000     0.0414736  
H398     H      0.555070000000     0.541950000000     0.121290000000     0.0589894  
H399     H      0.569800000000     0.537420000000     0.346460000000     0.0361359  
H400     H      0.559260000000     0.507860000000     0.070620000000     0.138098   
H401     H      0.895590000000     0.197480000000     0.848330000000     0.0408807  
H402     H      0.866630000000     0.201820000000     0.969640000000     0.0348856  
H403     H      0.886080000000     0.144890000000     0.970300000000     0.0508102  
H404     H      0.816370000000     0.146230000000     0.768270000000     0.0378676  
H405     H      0.894580000000     0.208690000000     0.020030000000     0.0360543  
H406     H      0.881830000000     0.147390000000     0.808540000000     0.0351214  
H407     H      0.830380000000     0.173690000000     0.819510000000     0.0343721  
H408     H      0.881540000000     0.152060000000     0.741860000000     0.0417217  
H409     H      0.905470000000     0.203250000000     0.912300000000     0.0443169  
H410     H      0.863900000000     0.200870000000     0.035540000000     0.0413236  
H411     H      0.825960000000     0.130280000000     0.871370000000     0.044593   
H412     H      0.843930000000     0.171210000000     0.985880000000     0.0403488  
H413     H      0.829330000000     0.177840000000     0.752810000000     0.0398664  
H414     H      0.906320000000     0.172680000000     0.021160000000     0.00110628 
H415     H      0.890610000000     0.178510000000     0.793640000000     0.037582   
H416     H      0.860820000000     0.193720000000     0.800220000000     0.0380947  
H417     H      0.834990000000     0.137020000000     0.935440000000     0.0417598  
H418     H      0.855440000000     0.137330000000     0.986340000000     0.0602228  
H419     H      0.852420000000     0.128410000000     0.760280000000     0.0364333  
H420     H      0.895160000000     0.134120000000     0.033330000000     0.138538   
H421     H      0.858670000000     0.181380000000     0.338470000000     0.0411782  
H422     H      0.814140000000     0.178490000000     0.466820000000     0.0350916  
H423     H      0.863480000000     0.149720000000     0.456280000000     0.0495253  
H424     H      0.786310000000     0.142040000000     0.254400000000     0.0357412  
H425     H      0.844750000000     0.198240000000     0.513510000000     0.0347385  
H426     H      0.826600000000     0.115370000000     0.311430000000     0.0351953  
H427     H      0.806780000000     0.171920000000     0.302450000000     0.0348725  
H428     H      0.829580000000     0.113750000000     0.245070000000     0.04227    
H429     H      0.868400000000     0.191510000000     0.401860000000     0.0441758  
H430     H      0.815750000000     0.175820000000     0.533570000000     0.041357   
H431     H      0.787620000000     0.117620000000     0.367000000000     0.0445691  
H432     H      0.804870000000     0.147650000000     0.483500000000     0.0389821  
H433     H      0.809700000000     0.171250000000     0.235850000000     0.0412389  
H434     H      0.879310000000     0.178370000000     0.506230000000     0.000858954
H435     H      0.849200000000     0.145150000000     0.292660000000     0.0396692  
H436     H      0.837360000000     0.178860000000     0.286970000000     0.0389577  
H437     H      0.798080000000     0.126770000000     0.430430000000     0.0413124  
H438     H      0.833230000000     0.130980000000     0.476760000000     0.0604873  
H439     H      0.798720000000     0.105710000000     0.260270000000     0.0372524  
H440     H      0.881990000000     0.145220000000     0.516870000000     0.13798    
H441     H      0.145230000000     0.304360000000     0.562520000000     0.0404971  
H442     H      0.148670000000     0.361570000000     0.438950000000     0.0350341  
H443     H      0.183950000000     0.318270000000     0.454400000000     0.0485859  
H444     H      0.140230000000     0.351390000000     0.661330000000     0.0371453  
H445     H      0.137690000000     0.334730000000     0.387420000000     0.0347304  
H446     H      0.205330000000     0.368150000000     0.601390000000     0.0340034  
H447     H      0.126060000000     0.324410000000     0.609470000000     0.0349053  
H448     H      0.209480000000     0.365120000000     0.667090000000     0.0404751  
H449     H      0.143850000000     0.301000000000     0.497700000000     0.0434651  
H450     H      0.159610000000     0.365960000000     0.373820000000     0.0410769  
H451     H      0.184760000000     0.384840000000     0.553920000000     0.0437185  
H452     H      0.181800000000     0.375060000000     0.430010000000     0.0390015  
H453     H      0.129610000000     0.319960000000     0.675590000000     0.042318   
H454     H      0.161360000000     0.304500000000     0.398190000000     0.0013272  
H455     H      0.191100000000     0.336200000000     0.616380000000     0.0393437  
H456     H      0.145120000000     0.310740000000     0.621450000000     0.0380969  
H457     H      0.185640000000     0.381460000000     0.489250000000     0.0406534  
H458     H      0.201960000000     0.350210000000     0.439630000000     0.0604036  
H459     H      0.192870000000     0.381180000000     0.655150000000     0.0381443  
H460     H      0.197320000000     0.305960000000     0.395330000000     0.137919   
H461     H      0.175980000000     0.302660000000     0.070630000000     0.0411142  
H462     H      0.150980000000     0.306420000000     0.953180000000     0.0353451  
H463     H      0.229280000000     0.335340000000     0.940740000000     0.0573595  
H464     H      0.220490000000     0.389010000000     0.143230000000     0.0376859  
H465     H      0.157380000000     0.283740000000     0.904750000000     0.036392   
H466     H      0.222900000000     0.325660000000     0.107780000000     0.0354716  
H467     H      0.190200000000     0.371660000000     0.094710000000     0.0341952  
H468     H      0.222080000000     0.329560000000     0.174280000000     0.0415184  
H469     H      0.170000000000     0.290570000000     0.007820000000     0.0440787  
H470     H      0.145050000000     0.302610000000     0.887130000000     0.0427672  
H471     H      0.225130000000     0.379530000000     0.040430000000     0.0443392  
H472     H      0.169360000000     0.336030000000     0.930860000000     0.0418227  
H473     H      0.189290000000     0.376310000000     0.160970000000     0.0399022  
H474     H      0.206610000000     0.301850000000     0.898130000000    -0.00201201 
H475     H      0.191860000000     0.315100000000     0.125500000000     0.0389631  
H476     H      0.172600000000     0.341970000000     0.117110000000     0.0394126  
H477     H      0.217020000000     0.367820000000     0.977570000000     0.0422618  
H478     H      0.215410000000     0.352840000000     0.922490000000     0.0628377  
H479     H      0.241540000000     0.358680000000     0.152000000000     0.0362852  
H480     H      0.229990000000     0.322290000000     0.853350000000     0.146596   
H481     H      0.034660000000     0.259220000000     0.276970000000     0.0408613  
H482     H      0.958890000000     0.252450000000     0.203700000000     0.0350373  
H483     H      0.965140000000     0.187210000000     0.203230000000     0.0501243  
H484     H      0.109950000000     0.325500000000     0.207340000000     0.0377379  
H485     H      0.918270000000     0.218500000000     0.220940000000     0.035337   
H486     H      0.073630000000     0.246760000000     0.229580000000     0.0351219  
H487     H      0.068120000000     0.312470000000     0.227300000000     0.0346304  
H488     H      0.117350000000     0.271530000000     0.255190000000     0.0410334  
H489     H      0.989000000000     0.234350000000     0.269210000000     0.0442802  
H490     H      0.916180000000     0.228770000000     0.176890000000     0.0413096  
H491     H      0.044090000000     0.265440000000     0.162580000000     0.0449978  
H492     H      0.958180000000     0.237770000000     0.161720000000     0.0396435  
H493     H      0.111780000000     0.337180000000     0.251750000000     0.0408332  
H494     H      0.922250000000     0.173510000000     0.219790000000    -0.000172982
H495     H      0.075670000000     0.262980000000     0.270590000000     0.0373591  
H496     H      0.072720000000     0.300890000000     0.269230000000     0.0373349  
H497     H      0.998530000000     0.240790000000     0.154780000000     0.0417072  
H498     H      0.962220000000     0.200100000000     0.161480000000     0.0607663  
H499     H      0.114140000000     0.278740000000     0.209750000000     0.0379484  
H500     H      0.924100000000     0.146830000000     0.184200000000     0.13799    
H501     H      0.312200000000     0.415980000000     0.396970000000     0.0418018  
H502     H      0.402370000000     0.429290000000     0.409450000000     0.0350937  
H503     H      0.398890000000     0.496010000000     0.413920000000     0.0497902  
H504     H      0.287640000000     0.380470000000     0.271570000000     0.0367557  
H505     H      0.424710000000     0.451150000000     0.462800000000     0.0357103  
H506     H      0.304780000000     0.446890000000     0.326420000000     0.0350597  
H507     H      0.311050000000     0.381540000000     0.324180000000     0.0353425  
H508     H      0.260280000000     0.422250000000     0.305050000000     0.0416998  
H509     H      0.349870000000     0.435380000000     0.434700000000     0.0445517  
H510     H      0.446580000000     0.451910000000     0.430520000000     0.0413717  
H511     H      0.358510000000     0.442260000000     0.302730000000     0.0447527  
H512     H      0.422730000000     0.455210000000     0.381120000000     0.0390561  
H513     H      0.267150000000     0.356510000000     0.302070000000     0.0441124  
H514     H      0.423050000000     0.496780000000     0.465560000000     0.00030291 
H515     H      0.284900000000     0.421030000000     0.355180000000     0.0392396  
H516     H      0.288450000000     0.382650000000     0.353680000000     0.041006   
H517     H      0.396130000000     0.461650000000     0.340370000000     0.041044   
H518     H      0.420370000000     0.493920000000     0.383330000000     0.0595456  
H519     H      0.282970000000     0.424060000000     0.273270000000     0.0373523  
H520     H      0.438450000000     0.533680000000     0.442170000000     0.137396   
H521     H      0.498760000000     0.005940000000     0.791110000000     0.0419092  
H522     H      0.552020000000     0.042400000000     0.668460000000     0.0352112  
H523     H      0.501130000000     0.964900000000     0.678500000000     0.0491098  
H524     H      0.565210000000     0.037910000000     0.885240000000     0.0374096  
H525     H      0.525720000000     0.032780000000     0.617010000000     0.0352841  
H526     H      0.524740000000     0.969560000000     0.829990000000     0.0353663  
H527     H      0.548930000000     0.047060000000     0.831830000000     0.0355984  
H528     H      0.517650000000     0.966760000000     0.895780000000     0.0434119  
H529     H      0.493530000000     0.004810000000     0.726060000000     0.04444    
H530     H      0.555170000000     0.036900000000     0.602270000000     0.0412942  
H531     H      0.569380000000     0.008130000000     0.777680000000     0.0449754  
H532     H      0.561570000000     0.020100000000     0.656510000000     0.0386611  
H533     H      0.541400000000     0.045080000000     0.897870000000     0.0435946  
H534     H      0.488550000000     0.976320000000     0.624130000000     0.00162546 
H535     H      0.502800000000     0.979400000000     0.843190000000     0.039968   
H536     H      0.517040000000     0.025140000000     0.844380000000     0.0404705  
H537     H      0.563440000000     0.005500000000     0.712720000000     0.0413333  
H538     H      0.532590000000     0.975880000000     0.662940000000     0.0599974  
H539     H      0.549820000000     0.987160000000     0.883550000000     0.0395977  
H540     H      0.488080000000     0.941200000000     0.617030000000     0.13843    
H541     H      0.469850000000     0.993310000000     0.294180000000     0.0409366  
H542     H      0.496970000000     0.029420000000     0.170540000000     0.0351502  
H543     H      0.463890000000     0.950480000000     0.167240000000     0.0575847  
H544     H      0.549850000000     0.010810000000     0.363600000000     0.0375543  
H545     H      0.465750000000     0.012990000000     0.122770000000     0.0352625  
H546     H      0.481420000000     0.950960000000     0.324230000000     0.0354546  
H547     H      0.535420000000     0.028030000000     0.317310000000     0.0344836  
H548     H      0.484660000000     0.953040000000     0.391180000000     0.0417316  
H549     H      0.457050000000     0.992970000000     0.231960000000     0.0445327  
H550     H      0.496640000000     0.031440000000     0.104250000000     0.0412893  
H551     H      0.533210000000     0.987490000000     0.257920000000     0.0449668  
H552     H      0.514600000000     0.016450000000     0.150340000000     0.0403681  
H553     H      0.539580000000     0.030500000000     0.383960000000     0.0405067  
H554     H      0.445300000000     0.964450000000     0.121930000000    -0.00222215 
H555     H      0.474700000000     0.973600000000     0.344070000000     0.0378434  
H556     H      0.506160000000     0.018450000000     0.339980000000     0.0381935  
H557     H      0.521210000000     0.988570000000     0.195720000000     0.0424318  
H558     H      0.494640000000     0.969090000000     0.147850000000     0.0630689  
H559     H      0.512600000000     0.958210000000     0.368880000000     0.0367713  
H560     H      0.447080000000     0.941030000000     0.080760000000     0.147315   
H561     H      0.695760000000     0.075590000000     0.128200000000     0.041029   
H562     H      0.624720000000     0.077520000000     0.062380000000     0.0350662  
H563     H      0.617370000000     0.005680000000     0.056260000000     0.0500407  
H564     H      0.770840000000     0.138450000000     0.055600000000     0.036891   
H565     H      0.582720000000     0.047900000000     0.081850000000     0.0350313  
H566     H      0.732470000000     0.060700000000     0.078100000000     0.0354349  
H567     H      0.729390000000     0.127790000000     0.075780000000     0.0345813  
H568     H      0.776390000000     0.084040000000     0.101760000000     0.0429137  
H569     H      0.649880000000     0.053440000000     0.123150000000     0.0444403  
H570     H      0.581540000000     0.060920000000     0.039560000000     0.0418649  
H571     H      0.701970000000     0.079330000000     0.013330000000     0.0448705  
H572     H      0.619850000000     0.062510000000     0.019430000000     0.0399442  
H573     H      0.773230000000     0.151710000000     0.099090000000     0.041143   
H574     H      0.576940000000     0.998830000000     0.076030000000     0.00126367 
H575     H      0.735350000000     0.077000000000     0.119380000000     0.0382412  
H576     H      0.733600000000     0.116240000000     0.118010000000     0.0380261  
H577     H      0.656170000000     0.057310000000     0.008250000000     0.0415747  
H578     H      0.616240000000     0.020940000000     0.015810000000     0.0599189  
H579     H      0.773020000000     0.093020000000     0.057360000000     0.0386755  
H580     H      0.572440000000     0.970380000000     0.037940000000     0.13888    
H581     H      0.154150000000     0.887250000000     0.616390000000     0.0409659  
H582     H      0.210080000000     0.891100000000     0.490150000000     0.0356076  
H583     H      0.131330000000     0.852500000000     0.506280000000     0.0493161  
H584     H      0.208880000000     0.897350000000     0.712990000000     0.037457   
H585     H      0.191540000000     0.900790000000     0.439860000000     0.0351929  
H586     H      0.165800000000     0.830060000000     0.650160000000     0.0337873  
H587     H      0.190920000000     0.907310000000     0.663300000000     0.0353185  
H588     H      0.160820000000     0.823900000000     0.716230000000     0.0392696  
H589     H      0.151620000000     0.889940000000     0.551790000000     0.0438925  
H590     H      0.203920000000     0.881580000000     0.424860000000     0.0415538  
H591     H      0.201000000000     0.854070000000     0.603300000000     0.0437121  
H592     H      0.192020000000     0.857990000000     0.480460000000     0.0401336  
H593     H      0.183370000000     0.900450000000     0.729840000000     0.0432376  
H594     H      0.139950000000     0.875900000000     0.450410000000     0.00106817 
H595     H      0.145360000000     0.840140000000     0.668830000000     0.0389923  
H596     H      0.159400000000     0.884110000000     0.675950000000     0.0380457  
H597     H      0.196260000000     0.854300000000     0.538940000000     0.0408369  
H598     H      0.146370000000     0.835640000000     0.490770000000     0.061115   
H599     H      0.192730000000     0.843210000000     0.702040000000     0.0390158  
H600     H      0.105540000000     0.840000000000     0.447580000000     0.137996   
H601     H      0.186270000000     0.855790000000     0.131020000000     0.0423852  
H602     H      0.183700000000     0.813210000000     0.000270000000     0.0353267  
H603     H      0.155330000000     0.862540000000     0.014750000000     0.0495701  
H604     H      0.152070000000     0.783240000000     0.213370000000     0.0359651  
H605     H      0.203940000000     0.844900000000     0.955250000000     0.0346344  
H606     H      0.118160000000     0.816830000000     0.155950000000     0.035077   
H607     H      0.181720000000     0.807530000000     0.166650000000     0.0357488  
H608     H      0.114160000000     0.817440000000     0.221990000000     0.0420328  
H609     H      0.195940000000     0.867010000000     0.067980000000     0.0445571  
H610     H      0.181370000000     0.816630000000     0.933820000000     0.0414206  
H611     H      0.124980000000     0.783700000000     0.100470000000     0.0445246  
H612     H      0.152920000000     0.804720000000     0.983640000000     0.0391438  
H613     H      0.179160000000     0.808930000000     0.233390000000     0.0429275  
H614     H      0.184220000000     0.879550000000     0.965110000000     0.00164208 
H615     H      0.146110000000     0.841590000000     0.176390000000     0.0409497  
H616     H      0.183920000000     0.836070000000     0.183010000000     0.041587   
H617     H      0.133360000000     0.795720000000     0.037500000000     0.0413713  
H618     H      0.136470000000     0.832940000000     0.992830000000     0.0607746  
H619     H      0.111140000000     0.788630000000     0.205820000000     0.0370341  
H620     H      0.150950000000     0.882420000000     0.955320000000     0.139196   
H621     H      0.302680000000     0.917770000000     0.927460000000     0.0413138  
H622     H      0.386070000000     0.920880000000     0.934720000000     0.0352933  
H623     H      0.396780000000     0.994090000000     0.932170000000     0.0494548  
H624     H      0.270200000000     0.883000000000     0.802800000000     0.0369324  
H625     H      0.411420000000     0.941640000000     0.986140000000     0.0362171  
H626     H      0.294550000000     0.949340000000     0.860520000000     0.0354097  
H627     H      0.295970000000     0.881570000000     0.850940000000     0.0347831  
H628     H      0.249180000000     0.927390000000     0.843960000000     0.0424771  
H629     H      0.341850000000     0.935270000000     0.961670000000     0.0447591  
H630     H      0.430430000000     0.937620000000     0.953530000000     0.0418168  
H631     H      0.344830000000     0.939000000000     0.829170000000     0.0447554  
H632     H      0.408500000000     0.943720000000     0.904260000000     0.03922    
H633     H      0.250810000000     0.858780000000     0.833850000000     0.0412555  
H634     H      0.420620000000     0.994370000000     0.983260000000     0.000824358
H635     H      0.275230000000     0.923880000000     0.890250000000     0.0389882  
H636     H      0.276100000000     0.883680000000     0.884550000000     0.038609   
H637     H      0.383960000000     0.955850000000     0.863320000000     0.0411616  
H638     H      0.414090000000     0.985570000000     0.902070000000     0.0590873  
H639     H      0.269070000000     0.926950000000     0.809240000000     0.0366962  
H640     H      0.441760000000     0.028640000000     0.952990000000     0.137761   
H641     H      0.863950000000     0.667530000000     0.832060000000     0.0408376  
H642     H      0.856870000000     0.700390000000     0.945280000000     0.0356273  
H643     H      0.801260000000     0.623990000000     0.948620000000     0.0489147  
H644     H      0.814150000000     0.689150000000     0.739050000000     0.0385946  
H645     H      0.868110000000     0.685770000000     0.996890000000     0.0395492  
H646     H      0.819780000000     0.629390000000     0.783880000000     0.0356721  
H647     H      0.836070000000     0.704400000000     0.795430000000     0.0347855  
H648     H      0.830760000000     0.636720000000     0.718750000000     0.0440714  
H649     H      0.865350000000     0.664360000000     0.897110000000     0.0446372  
H650     H      0.853410000000     0.702740000000     0.012380000000     0.0432524  
H651     H      0.791870000000     0.662910000000     0.840110000000     0.0449835  
H652     H      0.825770000000     0.690710000000     0.961290000000     0.0409517  
H653     H      0.846300000000     0.712190000000     0.730510000000     0.041001   
H654     H      0.822820000000     0.626940000000     0.002200000000     0.00146898 
H655     H      0.851230000000     0.654450000000     0.775210000000     0.0379249  
H656     H      0.860710000000     0.698340000000     0.782170000000     0.0385042  
H657     H      0.794190000000     0.661740000000     0.905310000000     0.041865   
H658     H      0.794180000000     0.647860000000     0.961520000000     0.0592407  
H659     H      0.803900000000     0.639200000000     0.730830000000     0.0394709  
H660     H      0.783230000000     0.609260000000     0.014950000000     0.138247   
H661     H      0.851300000000     0.640460000000     0.353270000000     0.0406122  
H662     H      0.897230000000     0.674800000000     0.451600000000     0.0344136  
H663     H      0.866080000000     0.722340000000     0.446860000000     0.0475041  
H664     H      0.883150000000     0.701870000000     0.235650000000     0.0424243  
H665     H      0.876830000000     0.665700000000     0.506690000000     0.0415615  
H666     H      0.825280000000     0.645040000000     0.303450000000     0.0347419  
H667     H      0.902330000000     0.697310000000     0.288260000000     0.0344048  
H668     H      0.824740000000     0.629830000000     0.238770000000     0.0406123  
H669     H      0.856580000000     0.650250000000     0.416720000000     0.0438906  
H670     H      0.908330000000     0.688450000000     0.517520000000     0.037212   
H671     H      0.884870000000     0.719040000000     0.328610000000     0.0442105  
H672     H      0.915730000000     0.707750000000     0.459770000000     0.0413378  
H673     H      0.898100000000     0.684460000000     0.223370000000     0.0415509  
H674     H      0.858660000000     0.715870000000     0.506380000000     0.0039075  
H675     H      0.847390000000     0.635020000000     0.292180000000     0.035734   
H676     H      0.890100000000     0.664400000000     0.281660000000     0.0389573  
H677     H      0.892700000000     0.729040000000     0.391640000000     0.0406743  
H678     H      0.899250000000     0.734480000000     0.451090000000     0.0567092  
H679     H      0.823560000000     0.657850000000     0.245090000000     0.03845    
H680     H      0.887980000000     0.754850000000     0.507280000000     0.138695   
H681     H      0.675050000000     0.600250000000     0.478750000000     0.0409331  
H682     H      0.743590000000     0.664630000000     0.562870000000     0.0353363  
H683     H      0.742780000000     0.595770000000     0.558010000000     0.0493446  
H684     H      0.593840000000     0.582410000000     0.540340000000     0.0385348  
H685     H      0.785750000000     0.675580000000     0.547830000000     0.0368316  
H686     H      0.636410000000     0.545330000000     0.519500000000     0.0347696  
H687     H      0.636050000000     0.613630000000     0.526170000000     0.0349939  
H688     H      0.594120000000     0.525250000000     0.489670000000     0.0406939  
H689     H      0.720190000000     0.621540000000     0.491560000000     0.0448154  
H690     H      0.785260000000     0.684390000000     0.593290000000     0.0417534  
H691     H      0.659220000000     0.588490000000     0.591540000000     0.0450951  
H692     H      0.743990000000     0.649120000000     0.603520000000     0.0392855  
H693     H      0.593670000000     0.593370000000     0.496030000000     0.0409335  
H694     H      0.785720000000     0.626300000000     0.546220000000     0.00153029 
H695     H      0.635180000000     0.560820000000     0.479310000000     0.0371306  
H696     H      0.635050000000     0.600060000000     0.483140000000     0.0373112  
H697     H      0.704270000000     0.609880000000     0.604390000000     0.0414694  
H698     H      0.742770000000     0.609230000000     0.600670000000     0.0594874  
H699     H      0.594200000000     0.533230000000     0.535730000000     0.0379673  
H700     H      0.784000000000     0.598200000000     0.582790000000     0.138125   
H701     H      0.969790000000     0.744940000000     0.762130000000     0.0408556  
H702     H      0.057870000000     0.758520000000     0.797050000000     0.035378   
H703     H      0.052650000000     0.824490000000     0.797430000000     0.0507597  
H704     H      0.956500000000     0.714850000000     0.633820000000     0.038327   
H705     H      0.075660000000     0.781500000000     0.852450000000     0.0361584  
H706     H      0.972280000000     0.780670000000     0.689310000000     0.0355867  
H707     H      0.973960000000     0.712810000000     0.690970000000     0.0350516  
H708     H      0.930800000000     0.759480000000     0.658520000000     0.0433173  
H709     H      0.003020000000     0.763070000000     0.807490000000     0.0445733  
H710     H      0.099580000000     0.780780000000     0.826070000000     0.0422437  
H711     H      0.025530000000     0.774930000000     0.678820000000     0.0452382  
H712     H      0.080230000000     0.784640000000     0.770590000000     0.0404136  
H713     H      0.932260000000     0.690680000000     0.660430000000     0.0420343  
H714     H      0.072660000000     0.821950000000     0.852850000000     0.00188044 
H715     H      0.948560000000     0.754500000000     0.714200000000     0.0383624  
H716     H      0.949560000000     0.714560000000     0.715230000000     0.0380203  
H717     H      0.058720000000     0.793180000000     0.724110000000     0.0416349  
H718     H      0.076990000000     0.824390000000     0.770690000000     0.0604537  
H719     H      0.955590000000     0.759950000000     0.632670000000     0.0399733  
H720     H      0.086880000000     0.860190000000     0.835040000000     0.137898   
N1       N      0.713450000000     0.911490000000     0.788380000000    -0.186634   
N2       N      0.734730000000     0.960360000000     0.759330000000    -0.108283   
N3       N      0.775560000000     0.042910000000     0.662890000000    -0.11371    
N4       N      0.804240000000     0.091950000000     0.636190000000    -0.171817   
N5       N      0.988630000000     0.432210000000     0.527920000000    -0.185062   
N6       N      0.967730000000     0.381500000000     0.548670000000    -0.107919   
N7       N      0.922720000000     0.288620000000     0.623660000000    -0.113701   
N8       N      0.893190000000     0.237380000000     0.640450000000    -0.172272   
N9       N      0.041690000000     0.570610000000     0.462310000000    -0.184947   
N10      N      0.061450000000     0.618670000000     0.431490000000    -0.107518   
N11      N      0.104920000000     0.722840000000     0.402020000000    -0.113168   
N12      N      0.125590000000     0.770790000000     0.371150000000    -0.170981   
N13      N      0.647020000000     0.769280000000     0.840850000000    -0.185546   
N14      N      0.624630000000     0.721190000000     0.871850000000    -0.107486   
N15      N      0.568670000000     0.617510000000     0.905590000000    -0.113056   
N16      N      0.538860000000     0.569870000000     0.936100000000    -0.17051    
N17      N      0.184120000000     0.905980000000     0.290550000000    -0.186121   
N18      N      0.204240000000     0.955330000000     0.263960000000    -0.107921   
N19      N      0.245280000000     0.043070000000     0.177550000000    -0.1135     
N20      N      0.270940000000     0.092920000000     0.152890000000    -0.171505   
N21      N      0.344530000000     0.236560000000     0.109500000000    -0.185328   
N22      N      0.369510000000     0.288080000000     0.091450000000    -0.108024   
N23      N      0.418630000000     0.380990000000     0.016800000000    -0.113239   
N24      N      0.450110000000     0.431040000000     0.995580000000    -0.171797   
N25      N      0.687470000000     0.810070000000     0.412890000000    -0.186447   
N26      N      0.686440000000     0.805820000000     0.488440000000    -0.108223   
N27      N      0.682400000000     0.824240000000     0.637100000000    -0.112829   
N28      N      0.679710000000     0.826140000000     0.711990000000    -0.170265   
N29      N      0.677520000000     0.848740000000     0.216060000000    -0.185252   
N30      N      0.679320000000     0.851240000000     0.141540000000    -0.106878   
N31      N      0.683040000000     0.864400000000     0.990210000000    -0.113384   
N32      N      0.682840000000     0.858180000000     0.915430000000    -0.171934   
N33      N      0.807540000000     0.696240000000     0.146760000000    -0.184582   
N34      N      0.782650000000     0.717530000000     0.182780000000    -0.107143   
N35      N      0.731700000000     0.767170000000     0.234320000000    -0.113016   
N36      N      0.711330000000     0.791980000000     0.273120000000    -0.171267   
N37      N      0.653050000000     0.869220000000     0.353390000000    -0.184983   
N38      N      0.633320000000     0.898700000000     0.380760000000    -0.107646   
N39      N      0.593460000000     0.945750000000     0.469310000000    -0.113572   
N40      N      0.564680000000     0.966960000000     0.493380000000    -0.17144    
N41      N      0.019350000000     0.522940000000     0.595450000000    -0.18631    
N42      N      0.023450000000     0.530750000000     0.670340000000    -0.10805    
N43      N      0.029000000000     0.517500000000     0.820360000000    -0.112922   
N44      N      0.028230000000     0.514570000000     0.895140000000    -0.171967   
N45      N      0.011250000000     0.480700000000     0.395850000000    -0.188032   
N46      N      0.014650000000     0.472330000000     0.322230000000    -0.107558   
N47      N      0.036660000000     0.481100000000     0.172170000000    -0.112874   
N48      N      0.039380000000     0.489450000000     0.097740000000    -0.172816   
N49      N      0.883480000000     0.628860000000     0.098930000000    -0.185613   
N50      N      0.908350000000     0.603890000000     0.073180000000    -0.107637   
N51      N      0.964870000000     0.554500000000     0.052430000000    -0.113271   
N52      N      0.992960000000     0.533050000000     0.026620000000    -0.171723   
N53      N      0.306610000000     0.148530000000     0.030170000000    -0.186745   
N54      N      0.307010000000     0.136200000000     0.957510000000    -0.107315   
N55      N      0.323830000000     0.130680000000     0.807960000000    -0.112772   
N56      N      0.325480000000     0.131730000000     0.732630000000    -0.171777   
N57      N      0.308410000000     0.179660000000     0.233700000000    -0.187952   
N58      N      0.309130000000     0.176800000000     0.309070000000    -0.108448   
N59      N      0.314830000000     0.145090000000     0.450040000000    -0.113378   
N60      N      0.317810000000     0.139420000000     0.524260000000    -0.171717   
N61      N      0.360260000000     0.101700000000     0.615860000000    -0.186198   
N62      N      0.389790000000     0.079860000000     0.596800000000    -0.108296   
N63      N      0.443860000000     0.042820000000     0.518080000000    -0.113666   
N64      N      0.474770000000     0.022880000000     0.499100000000    -0.172126   
N65      N      0.153400000000     0.375890000000     0.808610000000    -0.186295   
N66      N      0.138250000000     0.408150000000     0.840070000000    -0.10824    
N67      N      0.100560000000     0.451270000000     0.939320000000    -0.11361    
N68      N      0.073170000000     0.471960000000     0.970410000000    -0.172161   
N69      N      0.282220000000     0.170000000000     0.640730000000    -0.186413   
N70      N      0.256700000000     0.196610000000     0.656270000000    -0.108265   
N71      N      0.218040000000     0.251880000000     0.727610000000    -0.113339   
N72      N      0.200420000000     0.284540000000     0.747130000000    -0.171852   
N73      N      0.476100000000     0.483060000000     0.867890000000    -0.187551   
N74      N      0.473450000000     0.480020000000     0.792300000000    -0.108305   
N75      N      0.496740000000     0.501800000000     0.644430000000    -0.112967   
N76      N      0.500860000000     0.507360000000     0.569850000000    -0.171717   
N77      N      0.513610000000     0.518400000000     0.069090000000    -0.185271   
N78      N      0.518440000000     0.521130000000     0.143960000000    -0.10729    
N79      N      0.540460000000     0.539750000000     0.292700000000    -0.113558   
N80      N      0.538070000000     0.537360000000     0.367990000000    -0.172014   
N81      N      0.874160000000     0.172180000000     0.041660000000    -0.186615   
N82      N      0.878020000000     0.174530000000     0.966090000000    -0.1083     
N83      N      0.854200000000     0.157940000000     0.817470000000    -0.113369   
N84      N      0.851390000000     0.160370000000     0.742440000000    -0.172103   
N85      N      0.845110000000     0.166340000000     0.533300000000    -0.186627   
N86      N      0.840810000000     0.166700000000     0.457960000000    -0.108012   
N87      N      0.815140000000     0.142720000000     0.310900000000    -0.113676   
N88      N      0.818320000000     0.141290000000     0.235830000000    -0.172377   
N89      N      0.173590000000     0.340080000000     0.375630000000    -0.187469   
N90      N      0.163340000000     0.337430000000     0.449690000000    -0.107685   
N91      N      0.165330000000     0.348380000000     0.601930000000    -0.113028   
N92      N      0.169650000000     0.345090000000     0.676540000000    -0.172257   
N93      N      0.184050000000     0.315580000000     0.876180000000    -0.191113   
N94      N      0.190210000000     0.319510000000     0.951010000000    -0.108088   
N95      N      0.208350000000     0.349980000000     0.097270000000    -0.113201   
N96      N      0.207900000000     0.355300000000     0.171910000000    -0.172807   
N97      N      0.914110000000     0.192880000000     0.180330000000    -0.186322   
N98      N      0.963460000000     0.220610000000     0.208160000000    -0.108191   
N99      N      0.069610000000     0.278860000000     0.223380000000    -0.113367   
N100     N      0.119700000000     0.307070000000     0.246430000000    -0.172051   
N101     N      0.447290000000     0.486830000000     0.439740000000    -0.186623   
N102     N      0.397380000000     0.460890000000     0.413630000000    -0.108254   
N103     N      0.311100000000     0.416040000000     0.323720000000    -0.113535   
N104     N      0.261800000000     0.388440000000     0.297060000000    -0.171621   
N105     N      0.524180000000     0.999160000000     0.601280000000    -0.186168   
N106     N      0.524050000000     0.004400000000     0.676300000000    -0.10775    
N107     N      0.538970000000     0.008820000000     0.827400000000    -0.113399   
N108     N      0.531570000000     0.006320000000     0.902100000000    -0.170997   
N109     N      0.479270000000     0.991340000000     0.097470000000    -0.190627   
N110     N      0.479380000000     0.989760000000     0.173040000000    -0.108649   
N111     N      0.509930000000     0.988860000000     0.316840000000    -0.113425   
N112     N      0.515700000000     0.990890000000     0.391820000000    -0.172088   
N113     N      0.572770000000     0.022320000000     0.039030000000    -0.18669    
N114     N      0.622660000000     0.042090000000     0.063770000000    -0.108211   
N115     N      0.729230000000     0.093290000000     0.072660000000    -0.113568   
N116     N      0.779320000000     0.120210000000     0.096510000000    -0.172148   
N117     N      0.163510000000     0.863870000000     0.427630000000    -0.187898   
N118     N      0.171070000000     0.874260000000     0.501700000000    -0.107605   
N119     N      0.181540000000     0.869650000000     0.653360000000    -0.112638   
N120     N      0.177500000000     0.863020000000     0.728070000000    -0.171879   
N121     N      0.172240000000     0.846140000000     0.936260000000    -0.186725   
N122     N      0.172180000000     0.839830000000     0.011110000000    -0.107836   
N123     N      0.149230000000     0.810630000000     0.157310000000    -0.113489   
N124     N      0.145490000000     0.811690000000     0.232260000000    -0.172072   
N125     N      0.437930000000     0.975360000000     0.961210000000    -0.186221   
N126     N      0.388270000000     0.956360000000     0.936390000000    -0.10796    
N127     N      0.298360000000     0.917100000000     0.854470000000    -0.113704   
N128     N      0.247400000000     0.891970000000     0.834550000000    -0.172521   
N129     N      0.832120000000     0.663050000000     0.019340000000    -0.184623   
N130     N      0.831870000000     0.661090000000     0.944470000000    -0.107073   
N131     N      0.825310000000     0.665890000000     0.792750000000    -0.113344   
N132     N      0.835860000000     0.673980000000     0.719080000000    -0.171927   
N133     N      0.882120000000     0.701370000000     0.520420000000    -0.184491   
N134     N      0.877150000000     0.694780000000     0.447920000000    -0.104689   
N135     N      0.863010000000     0.674520000000     0.297650000000    -0.111997   
N136     N      0.858070000000     0.663700000000     0.224600000000    -0.171129   
N137     N      0.790830000000     0.652910000000     0.585500000000    -0.186203   
N138     N      0.742290000000     0.629880000000     0.555110000000    -0.107817   
N139     N      0.637150000000     0.579760000000     0.528120000000    -0.113276   
N140     N      0.588270000000     0.556260000000     0.499860000000    -0.172102   
N141     N      0.100350000000     0.816310000000     0.828330000000    -0.186621   
N142     N      0.052200000000     0.789830000000     0.796770000000    -0.108528   
N143     N      0.976410000000     0.748430000000     0.689460000000    -0.113517   
N144     N      0.930050000000     0.724250000000     0.653290000000    -0.171775   
Ni1      Ni     0.860920000000     0.669390000000     0.619480000000     1.00036    
Ni2      Ni     0.859640000000     0.707240000000     0.621210000000     1.00603    
Ni3      Ni     0.174410000000     0.835320000000     0.828560000000     1.0004     
Ni4      Ni     0.173490000000     0.873120000000     0.835540000000     1.0059     
Ni5      Ni     0.501380000000     0.977870000000     0.000370000000     1.0061     
Ni6      Ni     0.509520000000     0.019750000000     0.999090000000     1.00177    
Ni7      Ni     0.192370000000     0.329350000000     0.274700000000     1.00461    
Ni8      Ni     0.188490000000     0.365800000000     0.272450000000     0.998977   
Ni9      Ni     0.847620000000     0.137930000000     0.138950000000     1.00716    
Ni10     Ni     0.845230000000     0.175180000000     0.139040000000     0.997134   
Ni11     Ni     0.518720000000     0.502920000000     0.465730000000     1.00027    
Ni12     Ni     0.517610000000     0.540730000000     0.471200000000     1.00108    
Ni13     Ni     0.197910000000     0.347120000000     0.776440000000     1.0007     
Ni14     Ni     0.155780000000     0.313620000000     0.776330000000     1.00188    
Ni15     Ni     0.339980000000     0.155360000000     0.628670000000     1.00007    
Ni16     Ni     0.302290000000     0.116110000000     0.628400000000     1.00282    
Ni17     Ni     0.051510000000     0.522510000000     0.999310000000     0.997691   
Ni18     Ni     0.014410000000     0.482870000000     0.994720000000     0.996578   
Ni19     Ni     0.702570000000     0.847780000000     0.317280000000     1.00419    
Ni20     Ni     0.661780000000     0.812300000000     0.312440000000     0.999499   
Ni21     Ni     0.864020000000     0.682390000000     0.118870000000     1.00576    
Ni22     Ni     0.826880000000     0.642960000000     0.124910000000     0.999436   
Ni23     Ni     0.537350000000     0.015580000000     0.494420000000     0.995227   
Ni24     Ni     0.502300000000     0.974480000000     0.498570000000     1.00142    
Ni25     Ni     0.288380000000     0.164570000000     0.128200000000     1.00087    
Ni26     Ni     0.326920000000     0.164900000000     0.135140000000     1.00773    
Ni27     Ni     0.478270000000     0.505260000000     0.971830000000     1.00077    
Ni28     Ni     0.511640000000     0.496660000000     0.964930000000     1.00251    
Ni29     Ni     0.134410000000     0.835950000000     0.328740000000     1.00229    
Ni30     Ni     0.174890000000     0.840050000000     0.330930000000     1.0021     
Ni31     Ni     0.994470000000     0.498210000000     0.493770000000     1.00977    
Ni32     Ni     0.035910000000     0.504910000000     0.497580000000     1.00238    
Ni33     Ni     0.831200000000     0.167510000000     0.640460000000     0.996429   
Ni34     Ni     0.866500000000     0.161740000000     0.635600000000     1.00274    
Ni35     Ni     0.660420000000     0.838900000000     0.811470000000     0.999685   
Ni36     Ni     0.700230000000     0.841740000000     0.817120000000     1.00218    
O1       O      0.873270000000     0.677880000000     0.571560000000    -0.451654   
O2       O      0.848400000000     0.663340000000     0.667480000000    -0.447955   
O3       O      0.827170000000     0.653410000000     0.601900000000    -0.434717   
O4       O      0.894600000000     0.687960000000     0.637050000000    -0.450452   
O5       O      0.893880000000     0.723590000000     0.636420000000    -0.450252   
O6       O      0.825520000000     0.688440000000     0.605790000000    -0.454458   
O7       O      0.849070000000     0.699640000000     0.669970000000    -0.451721   
O8       O      0.870090000000     0.712230000000     0.572290000000    -0.442585   
O9       O      0.174360000000     0.833090000000     0.879600000000    -0.453586   
O10      O      0.174440000000     0.840060000000     0.777940000000    -0.451536   
O11      O      0.210240000000     0.855050000000     0.829260000000    -0.452215   
O12      O      0.138540000000     0.818130000000     0.828370000000    -0.453727   
O13      O      0.137690000000     0.853530000000     0.832510000000    -0.427285   
O14      O      0.209320000000     0.890190000000     0.837940000000    -0.451744   
O15      O      0.175670000000     0.876440000000     0.784560000000    -0.448389   
O16      O      0.171520000000     0.867360000000     0.886120000000    -0.434633   
O17      O      0.514450000000     0.982950000000     0.952760000000    -0.447625   
O18      O      0.488600000000     0.975450000000     0.047800000000    -0.437146   
O19      O      0.468890000000     0.967930000000     0.981350000000    -0.454074   
O20      O      0.534530000000     0.990630000000     0.019320000000    -0.431914   
O21      O      0.542030000000     0.029700000000     0.017900000000    -0.454962   
O22      O      0.476320000000     0.007000000000     0.980460000000    -0.434423   
O23      O      0.496610000000     0.014700000000     0.046820000000    -0.452449   
O24      O      0.522120000000     0.022130000000     0.951500000000    -0.446973   
O25      O      0.201030000000     0.334500000000     0.225100000000    -0.452587   
O26      O      0.183980000000     0.326890000000     0.324380000000    -0.437633   
O27      O      0.157430000000     0.310560000000     0.262360000000    -0.449897   
O28      O      0.226870000000     0.350450000000     0.286540000000    -0.449057   
O29      O      0.223450000000     0.384610000000     0.284560000000    -0.44948    
O30      O      0.154030000000     0.344750000000     0.260440000000    -0.453251   
O31      O      0.179950000000     0.360690000000     0.322190000000    -0.452778   
O32      O      0.196830000000     0.368230000000     0.222680000000    -0.450678   
O33      O      0.861520000000     0.146890000000     0.091720000000    -0.426103   
O34      O      0.833820000000     0.131640000000     0.186290000000    -0.449339   
O35      O      0.814540000000     0.121270000000     0.119010000000    -0.449628   
O36      O      0.880430000000     0.156880000000     0.158840000000    -0.433399   
O37      O      0.878400000000     0.191760000000     0.159130000000    -0.451366   
O38      O      0.812400000000     0.156160000000     0.118880000000    -0.451585   
O39      O      0.831170000000     0.166260000000     0.186010000000    -0.451878   
O40      O      0.859140000000     0.181570000000     0.091930000000    -0.453995   
O41      O      0.528750000000     0.511940000000     0.417050000000    -0.45149    
O42      O      0.509080000000     0.496550000000     0.514930000000    -0.451776   
O43      O      0.484150000000     0.487150000000     0.451720000000    -0.452941   
O44      O      0.553060000000     0.521110000000     0.480210000000    -0.452231   
O45      O      0.552260000000     0.556620000000     0.484750000000    -0.450159   
O46      O      0.483130000000     0.522400000000     0.457500000000    -0.43408    
O47      O      0.508180000000     0.531970000000     0.520210000000    -0.449071   
O48      O      0.526920000000     0.546890000000     0.421740000000    -0.446784   
O49      O      0.200200000000     0.338590000000     0.824950000000    -0.438167   
O50      O      0.193030000000     0.353130000000     0.727640000000    -0.45098    
O51      O      0.185110000000     0.368260000000     0.792330000000    -0.44939    
O52      O      0.207840000000     0.323850000000     0.760900000000    -0.450971   
O53      O      0.168580000000     0.292300000000     0.761450000000    -0.449145   
O54      O      0.145850000000     0.336980000000     0.791200000000    -0.433327   
O55      O      0.153650000000     0.321760000000     0.727500000000    -0.449902   
O56      O      0.160500000000     0.307990000000     0.825400000000    -0.450078   
O57      O      0.340260000000     0.152520000000     0.679580000000    -0.451979   
O58      O      0.337280000000     0.155650000000     0.577780000000    -0.452619   
O59      O      0.319660000000     0.170700000000     0.633370000000    -0.453074   
O60      O      0.357770000000     0.137360000000     0.623880000000    -0.45263    
O61      O      0.322520000000     0.100840000000     0.621630000000    -0.431162   
O62      O      0.284580000000     0.134010000000     0.635200000000    -0.431774   
O63      O      0.301060000000     0.119850000000     0.577650000000    -0.446173   
O64      O      0.306080000000     0.114940000000     0.679140000000    -0.445916   
O65      O      0.052730000000     0.515200000000     0.048790000000    -0.451237   
O66      O      0.047840000000     0.527160000000     0.949530000000    -0.451255   
O67      O      0.030590000000     0.536240000000     0.011400000000    -0.450216   
O68      O      0.070020000000     0.506130000000     0.986970000000    -0.449788   
O69      O      0.035220000000     0.469400000000     0.980780000000    -0.450973   
O70      O      0.996040000000     0.498980000000     0.009210000000    -0.449414   
O71      O      0.012220000000     0.490880000000     0.945820000000    -0.450465   
O72      O      0.019190000000     0.477350000000     0.043760000000    -0.451144   
O73      O      0.698500000000     0.856350000000     0.269490000000    -0.452456   
O74      O      0.704100000000     0.836620000000     0.364610000000    -0.429542   
O75      O      0.715450000000     0.827700000000     0.298240000000    -0.449685   
O76      O      0.687000000000     0.865710000000     0.335790000000    -0.449769   
O77      O      0.648930000000     0.832590000000     0.331040000000    -0.430506   
O78      O      0.677410000000     0.794320000000     0.294000000000    -0.447619   
O79      O      0.665820000000     0.803810000000     0.360310000000    -0.449305   
O80      O      0.660310000000     0.823210000000     0.264950000000    -0.438592   
O81      O      0.870220000000     0.680310000000     0.168520000000    -0.447988   
O82      O      0.855400000000     0.681920000000     0.069570000000    -0.449945   
O83      O      0.844320000000     0.697500000000     0.131120000000    -0.436009   
O84      O      0.881230000000     0.664640000000     0.107250000000    -0.435769   
O85      O      0.846940000000     0.627800000000     0.115360000000    -0.45111    
O86      O      0.809280000000     0.660700000000     0.134080000000    -0.448786   
O87      O      0.821850000000     0.644130000000     0.074570000000    -0.435488   
O88      O      0.834320000000     0.644550000000     0.174920000000    -0.4502     
O89      O      0.538490000000     0.016100000000     0.545630000000    -0.451865   
O90      O      0.533770000000     0.012460000000     0.443490000000    -0.450225   
O91      O      0.514230000000     0.027800000000     0.495860000000    -0.450859   
O92      O      0.558210000000     0.000580000000     0.493190000000    -0.448235   
O93      O      0.525390000000     0.962260000000     0.497510000000    -0.448028   
O94      O      0.481430000000     0.989410000000     0.499350000000    -0.450335   
O95      O      0.501310000000     0.973860000000     0.447340000000    -0.450476   
O96      O      0.505760000000     0.977700000000     0.549500000000    -0.436334   
O97      O      0.289850000000     0.158140000000     0.078350000000    -0.436129   
O98      O      0.289490000000     0.171000000000     0.178470000000    -0.433378   
O99      O      0.307660000000     0.199770000000     0.118930000000    -0.447794   
O100     O      0.271660000000     0.129390000000     0.138020000000    -0.445989   
O101     O      0.307730000000     0.130120000000     0.146770000000    -0.452107   
O102     O      0.343570000000     0.199650000000     0.122880000000    -0.434277   
O103     O      0.326570000000     0.173450000000     0.184220000000    -0.454644   
O104     O      0.324680000000     0.156210000000     0.085690000000    -0.451443   
O105     O      0.488920000000     0.514200000000     0.020440000000    -0.451836   
O106     O      0.470000000000     0.496020000000     0.922730000000    -0.433653   
O107     O      0.457540000000     0.470960000000     0.985840000000    -0.448924   
O108     O      0.501030000000     0.538780000000     0.957010000000    -0.446774   
O109     O      0.532430000000     0.530990000000     0.951160000000    -0.446274   
O110     O      0.488750000000     0.463010000000     0.978930000000    -0.451812   
O111     O      0.501140000000     0.487990000000     0.916270000000    -0.45344    
O112     O      0.519710000000     0.505600000000     0.014130000000    -0.435955   
O113     O      0.139890000000     0.848320000000     0.376710000000    -0.436066   
O114     O      0.131530000000     0.823730000000     0.280970000000    -0.451881   
O115     O      0.121360000000     0.802750000000     0.347140000000    -0.446027   
O116     O      0.150200000000     0.869480000000     0.310530000000    -0.451661   
O117     O      0.187760000000     0.872730000000     0.310980000000    -0.435045   
O118     O      0.159370000000     0.807090000000     0.350920000000    -0.450285   
O119     O      0.168680000000     0.826020000000     0.283770000000    -0.44777    
O120     O      0.178430000000     0.853860000000     0.377870000000    -0.452238   
O121     O      0.994110000000     0.488810000000     0.444920000000    -0.436876   
O122     O      0.997590000000     0.508190000000     0.542780000000    -0.431573   
O123     O      0.008770000000     0.532340000000     0.479000000000    -0.430759   
O124     O      0.982900000000     0.464470000000     0.508810000000    -0.44883    
O125     O      0.021680000000     0.471150000000     0.514010000000    -0.434014   
O126     O      0.047410000000     0.538240000000     0.480740000000    -0.451979   
O127     O      0.036880000000     0.516020000000     0.545690000000    -0.449969   
O128     O      0.032150000000     0.493300000000     0.449280000000    -0.453202   
O129     O      0.834120000000     0.166190000000     0.691420000000    -0.449338   
O130     O      0.830740000000     0.168570000000     0.589170000000    -0.450878   
O131     O      0.810560000000     0.131840000000     0.639150000000    -0.450422   
O132     O      0.854020000000     0.202690000000     0.641470000000    -0.452989   
O133     O      0.887140000000     0.197520000000     0.637050000000    -0.449326   
O134     O      0.843570000000     0.126500000000     0.634480000000    -0.447709   
O135     O      0.863630000000     0.163030000000     0.584820000000    -0.436116   
O136     O      0.866850000000     0.160370000000     0.686690000000    -0.451879   
O137     O      0.660720000000     0.830670000000     0.762050000000    -0.445201   
O138     O      0.662680000000     0.847210000000     0.861230000000    -0.449353   
O139     O      0.677920000000     0.873750000000     0.799400000000    -0.452377   
O140     O      0.645610000000     0.804380000000     0.824000000000    -0.436735   
O141     O      0.682700000000     0.806800000000     0.829110000000    -0.450962   
O142     O      0.715030000000     0.876320000000     0.804770000000    -0.433053   
O143     O      0.700040000000     0.850150000000     0.866360000000    -0.45023    
O144     O      0.698110000000     0.833670000000     0.767380000000    -0.447011   
O145     O      0.752870000000     0.913220000000     0.779630000000    -0.270622   
O146     O      0.028800000000     0.439360000000     0.546520000000    -0.270003   
O147     O      0.004250000000     0.571240000000     0.476150000000    -0.269544   
O148     O      0.606790000000     0.760720000000     0.820990000000    -0.271474   
O149     O      0.222870000000     0.907830000000     0.276630000000    -0.271251   
O150     O      0.382020000000     0.235790000000     0.095560000000    -0.269354   
O151     O      0.731390000000     0.840410000000     0.416140000000    -0.269665   
O152     O      0.633570000000     0.831530000000     0.214060000000    -0.273883   
O153     O      0.837990000000     0.736500000000     0.126540000000    -0.271743   
O154     O      0.614410000000     0.832620000000     0.367840000000    -0.27108    
O155     O      0.974760000000     0.499160000000     0.601700000000    -0.269945   
O156     O      0.986170000000     0.498960000000     0.381230000000    -0.272594   
O157     O      0.923140000000     0.664860000000     0.109920000000    -0.27204    
O158     O      0.288860000000     0.173550000000     0.013420000000    -0.272368   
O159     O      0.263590000000     0.158350000000     0.235240000000    -0.271877   
O160     O      0.323360000000     0.062340000000     0.604070000000    -0.269705   
O161     O      0.111180000000     0.342050000000     0.815260000000    -0.270203   
O162     O      0.244870000000     0.131960000000     0.655820000000    -0.270145   
O163     O      0.455490000000     0.507250000000     0.866240000000    -0.271905   
O164     O      0.552390000000     0.518990000000     0.064860000000    -0.271418   
O165     O      0.881770000000     0.137570000000     0.041090000000    -0.267735   
O166     O      0.865940000000     0.142750000000     0.526750000000    -0.271975   
O167     O      0.199320000000     0.322040000000     0.386550000000    -0.273575   
O168     O      0.228760000000     0.334300000000     0.869690000000    -0.277532   
O169     O      0.921360000000     0.158750000000     0.169750000000    -0.268253   
O170     O      0.447180000000     0.525290000000     0.431800000000    -0.270892   
O171     O      0.504430000000     0.955110000000     0.608670000000    -0.272815   
O172     O      0.461900000000     0.946630000000     0.096550000000    -0.276478   
O173     O      0.571810000000     0.984100000000     0.024980000000    -0.270458   
O174     O      0.119640000000     0.838070000000     0.438500000000    -0.272742   
O175     O      0.148650000000     0.866760000000     0.944360000000    -0.270601   
O176     O      0.446770000000     0.016380000000     0.945190000000    -0.27121    
O177     O      0.791370000000     0.627410000000     0.020280000000    -0.270798   
O178     O      0.895150000000     0.743990000000     0.513120000000    -0.274884   
O179     O      0.785550000000     0.612570000000     0.596770000000    -0.271767   
O180     O      0.097820000000     0.853930000000     0.825690000000    -0.267757   


