data_structure

_audit_creation_method RASPA-1.0
_audit_creation_date 2023-5-25
_audit_author_name 'Poobodin Mano'

_cell_length_a    37.778
_cell_length_b    37.7552
_cell_length_c    37.549
_cell_angle_alpha 90
_cell_angle_beta  90
_cell_angle_gamma 90
_cell_volume      53556.7

_symmetry_cell_setting          triclinic
_symmetry_space_group_name_Hall 'P 1'
_symmetry_space_group_name_H-M  'P 1'
_symmetry_Int_Tables_number     1

_symmetry_equiv_pos_as_xyz 'x,y,z'

loop_
_atom_site_label
_atom_site_type_symbol
_atom_site_fract_x
_atom_site_fract_y
_atom_site_fract_z
_atom_site_charge
C1       C      0.011420000000     0.066100000000     0.515960000000     0.429553   
C2       C      0.990230000000     0.933690000000     0.498080000000     0.430371   
C3       C      0.934220000000     0.008560000000     0.513380000000     0.43067    
C4       C      0.067820000000     0.992200000000     0.500910000000     0.429746   
C5       C      0.991790000000     0.564250000000     0.490480000000     0.426841   
C6       C      0.008850000000     0.433030000000     0.518800000000     0.427794   
C7       C      0.996990000000     0.483710000000     0.437860000000     0.428179   
C8       C      0.003570000000     0.513470000000     0.570390000000     0.430529   
C9       C      0.572820000000     0.962190000000     0.478540000000     0.42768    
C10      C      0.437890000000     0.970250000000     0.477970000000     0.427362   
C11      C      0.506160000000     0.961640000000     0.410980000000     0.431336   
C12      C      0.505710000000     0.970740000000     0.546620000000     0.430414   
C13      C      0.459430000000     0.014350000000     0.051760000000     0.428625   
C14      C      0.475010000000     0.995230000000     0.918110000000     0.426909   
C15      C      0.459840000000     0.070600000000     0.973390000000     0.431225   
C16      C      0.474630000000     0.938300000000     0.996830000000     0.430256   
C17      C      0.064690000000     0.497030000000     0.022890000000     0.428149   
C18      C      0.935060000000     0.505930000000     0.985290000000     0.427999   
C19      C      0.981050000000     0.499090000000     0.069440000000     0.4303     
C20      C      0.018760000000     0.503580000000     0.938880000000     0.428606   
C21      C      0.432720000000     0.501990000000     0.014960000000     0.430548   
C22      C      0.566960000000     0.503470000000     0.999250000000     0.430255   
C23      C      0.500350000000     0.569720000000     0.009880000000     0.425847   
C24      C      0.499860000000     0.434600000000     0.003920000000     0.428499   
C25      C      0.657050000000     0.494530000000     0.959750000000    -0.0325495  
C26      C      0.843930000000     0.475700000000     0.969310000000    -0.0306423  
C27      C      0.881560000000     0.542670000000     0.977210000000    -0.0049641  
C28      C      0.882430000000     0.478730000000     0.957050000000    -0.00568119 
C29      C      0.767510000000     0.533400000000     0.952090000000    -0.0543884  
C30      C      0.734930000000     0.488090000000     0.000980000000    -0.0557835  
C31      C      0.788330000000     0.509560000000     0.971580000000     0.0607574  
C32      C      0.843370000000     0.536920000000     0.989490000000    -0.0308409  
C33      C      0.714270000000     0.512850000000     0.982050000000     0.0609475  
C34      C      0.662940000000     0.508430000000     0.022330000000    -0.0571322  
C35      C      0.731000000000     0.535290000000     0.957540000000    -0.0538223  
C36      C      0.624270000000     0.520560000000     0.025370000000     0.0966237  
C37      C      0.618270000000     0.506180000000     0.959080000000     0.000616361
C38      C      0.771690000000     0.487230000000     0.996630000000    -0.0556762  
C39      C      0.344080000000     0.482600000000     0.053140000000    -0.0324686  
C40      C      0.154630000000     0.459130000000     0.034480000000    -0.0309164  
C41      C      0.120060000000     0.528070000000     0.037830000000    -0.00436622 
C42      C      0.115380000000     0.461410000000     0.044870000000    -0.00570839 
C43      C      0.231180000000     0.511620000000     0.065360000000    -0.0546054  
C44      C      0.265760000000     0.476130000000     0.010110000000    -0.0554054  
C45      C      0.211310000000     0.490960000000     0.041650000000     0.0609285  
C46      C      0.158300000000     0.522740000000     0.026090000000    -0.0308849  
C47      C      0.285290000000     0.498470000000     0.032930000000     0.0606165  
C48      C      0.336620000000     0.502330000000     0.992300000000    -0.0569954  
C49      C      0.267590000000     0.515720000000     0.060760000000    -0.0536587  
C50      C      0.374170000000     0.517910000000     0.990660000000     0.0966234  
C51      C      0.381570000000     0.497690000000     0.055230000000     0.00047897 
C52      C      0.229000000000     0.473280000000     0.013750000000    -0.0560216  
C53      C      0.518600000000     0.852010000000     0.015430000000    -0.0320823  
C54      C      0.483290000000     0.664030000000     0.986570000000    -0.0308852  
C55      C      0.518790000000     0.623390000000     0.042180000000    -0.00540295 
C56      C      0.496110000000     0.626550000000     0.978230000000    -0.00449568 
C57      C      0.476430000000     0.733530000000     0.037530000000    -0.056473   
C58      C      0.516830000000     0.776910000000     0.992830000000    -0.056196   
C59      C      0.502010000000     0.718180000000     0.014990000000     0.0609381  
C60      C      0.505800000000     0.661490000000     0.046860000000    -0.0306975  
C61      C      0.492710000000     0.792390000000     0.016850000000     0.0608729  
C62      C      0.459510000000     0.841550000000     0.992580000000    -0.0577669  
C63      C      0.472410000000     0.770300000000     0.038830000000    -0.0537392  
C64      C      0.447290000000     0.879170000000     0.001990000000     0.0982111  
C65      C      0.509980000000     0.890620000000     0.024340000000    -0.000494562
C66      C      0.521810000000     0.740230000000     0.992510000000    -0.0541263  
C67      C      0.491510000000     0.160550000000     0.964740000000    -0.0314884  
C68      C      0.475200000000     0.342890000000     0.026520000000    -0.0311873  
C69      C      0.510440000000     0.380530000000     0.968660000000    -0.00515502 
C70      C      0.496060000000     0.376820000000     0.034550000000    -0.00443006 
C71      C      0.451960000000     0.278930000000     0.968130000000    -0.0556418  
C72      C      0.487350000000     0.226270000000     0.006460000000    -0.0564232  
C73      C      0.479150000000     0.288540000000     0.992030000000     0.0605142  
C74      C      0.489540000000     0.346330000000     0.963510000000    -0.0305046  
C75      C      0.463180000000     0.216570000000     0.979580000000     0.0610623  
C76      C      0.432510000000     0.161060000000     0.991360000000    -0.0574875  
C77      C      0.444680000000     0.243220000000     0.961530000000    -0.054041   
C78      C      0.423250000000     0.125070000000     0.974170000000     0.0979652  
C79      C      0.484560000000     0.124990000000     0.946980000000     0.000421306
C80      C      0.495760000000     0.261880000000     0.011940000000    -0.0538119  
C81      C      0.486670000000     0.950140000000     0.641390000000    -0.032443   
C82      C      0.518620000000     0.992220000000     0.828530000000    -0.0303227  
C83      C      0.447900000000     0.986100000000     0.859300000000    -0.00409218 
C84      C      0.512100000000     0.006870000000     0.865850000000    -0.00542919 
C85      C      0.514420000000     0.962910000000     0.756130000000    -0.0563855  
C86      C      0.475930000000     0.005310000000     0.708870000000    -0.0559715  
C87      C      0.490970000000     0.988650000000     0.769620000000     0.0610901  
C88      C      0.458270000000     0.971820000000     0.822580000000    -0.0309607  
C89      C      0.501470000000     0.981560000000     0.695480000000     0.0608092  
C90      C      0.507000000000     0.010820000000     0.637160000000    -0.0570792  
C91      C      0.520050000000     0.960030000000     0.719470000000    -0.0534643  
C92      C      0.522800000000     0.004990000000     0.599920000000     0.0964353  
C93      C      0.501790000000     0.940900000000     0.604760000000     0.000451077
C94      C      0.471350000000     0.009200000000     0.745600000000    -0.0543247  
C95      C      0.506330000000     0.996260000000     0.320650000000    -0.0313967  
C96      C      0.435250000000     0.985450000000     0.139980000000    -0.0310342  
C97      C      0.481890000000     0.038560000000     0.108730000000    -0.00475193 
C98      C      0.423890000000     0.005780000000     0.106500000000    -0.00494177 
C99      C      0.491110000000     0.965810000000     0.201530000000    -0.0565401  
C100     C      0.456120000000     0.995060000000     0.260180000000    -0.0558352  
C101     C      0.465790000000     0.992730000000     0.196270000000     0.0613996  
C102     C      0.491330000000     0.017690000000     0.142220000000    -0.030726   
C103     C      0.484200000000     0.971090000000     0.265620000000     0.0606445  
C104     C      0.475940000000     0.939240000000     0.321380000000    -0.0574734  
C105     C      0.500620000000     0.955640000000     0.236020000000    -0.0535631  
C106     C      0.495720000000     0.927710000000     0.355440000000     0.098103   
C107     C      0.526840000000     0.987130000000     0.354310000000     0.000395102
C108     C      0.447520000000     0.006190000000     0.225760000000    -0.0548206  
C109     C      0.044690000000     0.529470000000     0.657950000000    -0.0318523  
C110     C      0.014390000000     0.481930000000     0.844170000000    -0.0310041  
C111     C      0.045710000000     0.536720000000     0.888850000000    -0.00511006 
C112     C      0.027710000000     0.472670000000     0.881540000000    -0.00459622 
C113     C      0.002070000000     0.537870000000     0.778740000000    -0.0562845  
C114     C      0.044570000000     0.500330000000     0.730840000000    -0.0560937  
C115     C      0.029350000000     0.515960000000     0.791820000000     0.0609398  
C116     C      0.032400000000     0.543480000000     0.851010000000    -0.0308441  
C117     C      0.018890000000     0.524090000000     0.717740000000     0.0609004  
C118     C      0.986010000000     0.504350000000     0.666090000000    -0.0576572  
C119     C      0.997500000000     0.542350000000     0.742090000000    -0.0536372  
C120     C      0.973940000000     0.516660000000     0.629010000000     0.0979473  
C121     C      0.035710000000     0.541780000000     0.620220000000    -0.000515207
C122     C      0.050110000000     0.496960000000     0.767480000000    -0.0541947  
C123     C      0.987490000000     0.519150000000     0.164390000000    -0.032248   
C124     C      0.955660000000     0.470830000000     0.350050000000    -0.030747   
C125     C      0.026620000000     0.479420000000     0.379350000000    -0.00454873 
C126     C      0.963840000000     0.457420000000     0.387580000000    -0.00528791 
C127     C      0.957680000000     0.501360000000     0.277790000000    -0.0562688  
C128     C      0.997050000000     0.461500000000     0.229100000000    -0.0558749  
C129     C      0.981750000000     0.475720000000     0.290400000000     0.0608505  
C130     C      0.015770000000     0.492620000000     0.342350000000    -0.0310417  
C131     C      0.971200000000     0.485360000000     0.216500000000     0.0605775  
C132     C      0.966210000000     0.458780000000     0.156950000000    -0.0570322  
C133     C      0.952040000000     0.505490000000     0.241240000000    -0.0536141  
C134     C      0.952640000000     0.466570000000     0.119180000000     0.0963515  
C135     C      0.974360000000     0.529590000000     0.127280000000     0.000255238
C136     C      0.001640000000     0.456320000000     0.265660000000    -0.054302   
C137     C      0.158040000000     0.993700000000     0.459800000000    -0.0315745  
C138     C      0.343370000000     0.948780000000     0.495640000000    -0.0308672  
C139     C      0.384830000000     0.004320000000     0.461230000000    -0.005566   
C140     C      0.380270000000     0.939990000000     0.481370000000    -0.00447856 
C141     C      0.275940000000     0.001630000000     0.506780000000    -0.0564626  
C142     C      0.229670000000     0.962890000000     0.463570000000    -0.0563115  
C143     C      0.289730000000     0.979820000000     0.479660000000     0.060948   
C144     C      0.347330000000     0.009620000000     0.475610000000    -0.0306988  
C145     C      0.215870000000     0.986860000000     0.488750000000     0.0611183  
C146     C      0.161990000000     0.968430000000     0.518860000000    -0.0576785  
C147     C      0.239370000000     0.005530000000     0.510700000000    -0.0537102  
C148     C      0.125780000000     0.983380000000     0.529970000000     0.0984385  
C149     C      0.120930000000     0.008270000000     0.466770000000    -0.000931336
C150     C      0.266250000000     0.960010000000     0.458720000000    -0.054189   
C151     C      0.845620000000     0.982160000000     0.540130000000    -0.0320494  
C152     C      0.663290000000     0.996310000000     0.476470000000    -0.029964   
C153     C      0.628170000000     0.928620000000     0.488900000000    -0.00477079 
C154     C      0.628860000000     0.987750000000     0.457250000000    -0.0051725  
C155     C      0.726280000000     0.994690000000     0.522950000000    -0.0559737  
C156     C      0.781730000000     0.961960000000     0.486240000000    -0.0561062  
C157     C      0.718640000000     0.970000000000     0.495880000000     0.0608957  
C158     C      0.662990000000     0.939400000000     0.507130000000    -0.0312052  
C159     C      0.789170000000     0.989590000000     0.510360000000     0.0609572  
C160     C      0.843420000000     0.009910000000     0.481530000000    -0.0570229  
C161     C      0.761250000000     0.004810000000     0.529570000000    -0.0540557  
C162     C      0.877630000000     0.030630000000     0.488500000000     0.096376   
C163     C      0.879810000000     0.002020000000     0.549460000000     3.09797e-05
C164     C      0.746680000000     0.952830000000     0.478640000000    -0.0541864  
C165     C      0.977980000000     0.839810000000     0.522560000000    -0.0318792  
C166     C      0.009230000000     0.658550000000     0.463200000000    -0.0307419  
C167     C      0.954670000000     0.616730000000     0.498900000000    -0.00503798 
C168     C      0.018880000000     0.621350000000     0.475890000000    -0.00395413 
C169     C      0.955830000000     0.729650000000     0.465170000000    -0.0559591  
C170     C      0.005620000000     0.769410000000     0.503150000000    -0.0563798  
C171     C      0.981810000000     0.712120000000     0.485580000000     0.0607122  
C172     C      0.949940000000     0.655050000000     0.486460000000    -0.030528   
C173     C      0.977810000000     0.786820000000     0.485320000000     0.0609223  
C174     C      0.995100000000     0.843540000000     0.460280000000    -0.0577214  
C175     C      0.953560000000     0.766630000000     0.465680000000    -0.0539246  
C176     C      0.982970000000     0.882410000000     0.457670000000     0.0981921  
C177     C      0.966050000000     0.878410000000     0.523050000000    -0.000345253
C178     C      0.007020000000     0.732460000000     0.503850000000    -0.0537278  
C179     C      0.027440000000     0.152900000000     0.561000000000    -0.0319477  
C180     C      0.991420000000     0.336710000000     0.520010000000    -0.0310208  
C181     C      0.047430000000     0.385260000000     0.541620000000    -0.00563907 
C182     C      0.981980000000     0.374720000000     0.530160000000    -0.00432713 
C183     C      0.048330000000     0.270790000000     0.512950000000    -0.056123   
C184     C      0.008190000000     0.228620000000     0.559030000000    -0.0561665  
C185     C      0.026820000000     0.287070000000     0.538900000000     0.0606535  
C186     C      0.053670000000     0.346270000000     0.532230000000    -0.0308556  
C187     C      0.030680000000     0.212370000000     0.533920000000     0.0609289  
C188     C      0.007400000000     0.162840000000     0.500590000000    -0.0580848  
C189     C      0.050720000000     0.233920000000     0.511140000000    -0.0536     
C190     C      0.017350000000     0.125250000000     0.488910000000     0.0986041  
C191     C      0.036220000000     0.114010000000     0.553170000000    -0.000889112
C192     C      0.006970000000     0.265510000000     0.561880000000    -0.0540343  
H1       H      0.786740000000     0.468960000000     0.012780000000     0.0394471  
H2       H      0.668280000000     0.498720000000     0.932660000000     0.034245   
H3       H      0.679270000000     0.522560000000     0.042530000000     0.0418292  
H4       H      0.881200000000     0.555130000000     0.950380000000     0.0371644  
H5       H      0.616660000000     0.533170000000     0.947300000000     0.0407882  
H6       H      0.830180000000     0.455910000000     0.952270000000     0.0337485  
H7       H      0.829250000000     0.562740000000     0.987730000000     0.0340633  
H8       H      0.895940000000     0.453010000000     0.961740000000     0.0404307  
H9       H      0.613840000000     0.510500000000     0.051220000000     0.0176332  
H10      H      0.723040000000     0.469840000000     0.019660000000     0.0395684  
H11      H      0.603300000000     0.487910000000     0.941370000000     0.0373818  
H12      H      0.779810000000     0.551060000000     0.933030000000     0.0437614  
H13      H      0.658880000000     0.465740000000     0.966020000000     0.0377354  
H14      H      0.894600000000     0.561390000000     0.995930000000     0.0401439  
H15      H      0.843930000000     0.465970000000     0.997290000000     0.0365527  
H16      H      0.843030000000     0.528170000000     0.017830000000     0.0384041  
H17      H      0.715570000000     0.554270000000     0.942500000000     0.0447226  
H18      H      0.664120000000     0.479590000000     0.028440000000     0.0411182  
H19      H      0.882620000000     0.483670000000     0.927850000000     0.0356455  
H20      H      0.596330000000     0.567600000000     0.026900000000     0.0889853  
H21      H      0.635880000000     0.569090000000     0.048350000000     0.0790295  
H22      H      0.214710000000     0.457540000000     0.994480000000     0.0398565  
H23      H      0.332670000000     0.482840000000     0.080480000000     0.0338562  
H24      H      0.319080000000     0.517130000000     0.973690000000     0.0416574  
H25      H      0.119770000000     0.535480000000     0.066500000000     0.0368354  
H26      H      0.380670000000     0.523520000000     0.069440000000     0.0406168  
H27      H      0.166700000000     0.436000000000     0.048240000000     0.0337721  
H28      H      0.173290000000     0.547240000000     0.032840000000     0.0338906  
H29      H      0.101250000000     0.438110000000     0.033670000000     0.0403872  
H30      H      0.385290000000     0.511400000000     0.963970000000     0.0175378  
H31      H      0.278430000000     0.461740000000     0.988730000000     0.0394819  
H32      H      0.398130000000     0.479310000000     0.071310000000     0.0376653  
H33      H      0.218070000000     0.525760000000     0.086700000000     0.0436392  
H34      H      0.344880000000     0.454600000000     0.043820000000     0.0377035  
H35      H      0.108890000000     0.550630000000     0.022460000000     0.0406544  
H36      H      0.156180000000     0.454690000000     0.005220000000     0.0367904  
H37      H      0.159530000000     0.518990000000     0.996680000000     0.0390939  
H38      H      0.282120000000     0.532740000000     0.078800000000     0.0441569  
H39      H      0.337730000000     0.474280000000     0.983170000000     0.0410555  
H40      H      0.113360000000     0.459800000000     0.074370000000     0.0359396  
H41      H      0.398130000000     0.566970000000     0.994060000000     0.0887589  
H42      H      0.358510000000     0.567360000000     0.972660000000     0.0787506  
H43      H      0.540840000000     0.728800000000     0.974250000000     0.0437334  
H44      H      0.539140000000     0.842380000000     0.034340000000     0.0348698  
H45      H      0.436210000000     0.823460000000     0.993230000000     0.0412716  
H46      H      0.547960000000     0.623830000000     0.038250000000     0.0342679  
H47      H      0.505000000000     0.892680000000     0.053450000000     0.0382051  
H48      H      0.483160000000     0.679410000000     0.961260000000     0.0334092  
H49      H      0.522970000000     0.674950000000     0.066780000000     0.0341818  
H50      H      0.476160000000     0.613460000000     0.960850000000     0.0377548  
H51      H      0.429130000000     0.888190000000     0.980430000000     0.0163298  
H52      H      0.531940000000     0.792880000000     0.974410000000     0.0402172  
H53      H      0.533600000000     0.907120000000     0.018290000000     0.0394516  
H54      H      0.459620000000     0.717400000000     0.054230000000     0.0402785  
H55      H      0.529730000000     0.851080000000     0.988000000000     0.0365005  
H56      H      0.513550000000     0.608570000000     0.067220000000     0.0397377  
H57      H      0.455670000000     0.663190000000     0.996960000000     0.0372699  
H58      H      0.478300000000     0.660640000000     0.057470000000     0.0364244  
H59      H      0.452980000000     0.781700000000     0.056670000000     0.0448459  
H60      H      0.470310000000     0.841070000000     0.964970000000     0.0429833  
H61      H      0.521300000000     0.628240000000     0.963000000000     0.0385097  
H62      H      0.420680000000     0.904540000000     0.042730000000     0.0905765  
H63      H      0.404720000000     0.863570000000     0.032990000000     0.0782806  
H64      H      0.515960000000     0.268760000000     0.031210000000     0.0429412  
H65      H      0.510330000000     0.175830000000     0.947880000000     0.0352072  
H66      H      0.407850000000     0.176890000000     0.994580000000     0.0414392  
H67      H      0.539070000000     0.373810000000     0.970060000000     0.0358048  
H68      H      0.475810000000     0.129960000000     0.919150000000     0.0381763  
H69      H      0.475940000000     0.325790000000     0.050650000000     0.0332234  
H70      H      0.501060000000     0.331650000000     0.940560000000     0.0342517  
H71      H      0.482170000000     0.391670000000     0.055980000000     0.0388085  
H72      H      0.406610000000     0.109890000000     0.993340000000     0.0148157  
H73      H      0.500950000000     0.206460000000     0.022110000000     0.0403528  
H74      H      0.509700000000     0.109750000000     0.945570000000     0.0387795  
H75      H      0.437360000000     0.298660000000     0.953310000000     0.0400656  
H76      H      0.504140000000     0.155480000000     0.991030000000     0.0385527  
H77      H      0.506590000000     0.397640000000     0.944880000000     0.0407974  
H78      H      0.447030000000     0.349470000000     0.020780000000     0.038345   
H79      H      0.461650000000     0.353380000000     0.957080000000     0.0375343  
H80      H      0.425230000000     0.236240000000     0.941540000000     0.0448542  
H81      H      0.443820000000     0.156580000000     0.018380000000     0.0430711  
H82      H      0.522730000000     0.369400000000     0.044630000000     0.0376092  
H83      H      0.398270000000     0.106240000000     0.929210000000     0.0900086  
H84      H      0.378800000000     0.142670000000     0.947310000000     0.0785649  
H85      H      0.452450000000     0.028410000000     0.755480000000     0.0435654  
H86      H      0.486830000000     0.925650000000     0.657910000000     0.0339023  
H87      H      0.521870000000     0.032220000000     0.651040000000     0.0421188  
H88      H      0.432980000000     0.011250000000     0.855740000000     0.0383904  
H89      H      0.527550000000     0.927120000000     0.608410000000     0.0402413  
H90      H      0.540050000000     0.008000000000     0.815790000000     0.0341924  
H91      H      0.434270000000     0.972020000000     0.805370000000     0.0334417  
H92      H      0.535570000000     0.000700000000     0.882620000000     0.0405845  
H93      H      0.517050000000     0.029100000000     0.583830000000     0.0176524  
H94      H      0.460000000000     0.021390000000     0.691260000000     0.0399541  
H95      H      0.483370000000     0.922100000000     0.591460000000     0.037941   
H96      H      0.529000000000     0.945540000000     0.773690000000     0.0402094  
H97      H      0.458730000000     0.959180000000     0.638720000000     0.0376738  
H98      H      0.429750000000     0.966800000000     0.872270000000     0.0378364  
H99      H      0.527820000000     0.964310000000     0.831030000000     0.0360855  
H100     H      0.467580000000     0.943910000000     0.824900000000     0.0373403  
H101     H      0.539010000000     0.940870000000     0.709610000000     0.0442038  
H102     H      0.479120000000     0.019860000000     0.633920000000     0.0412675  
H103     H      0.510130000000     0.036220000000     0.864160000000     0.0366059  
H104     H      0.571820000000     0.995850000000     0.577380000000     0.0886456  
H105     H      0.572600000000     0.024280000000     0.612460000000     0.0790178  
H106     H      0.427240000000     0.026140000000     0.222090000000     0.0435831  
H107     H      0.522810000000     0.014380000000     0.304150000000     0.0348871  
H108     H      0.469420000000     0.915370000000     0.305250000000     0.0417098  
H109     H      0.470260000000     0.064330000000     0.117020000000     0.0346791  
H110     H      0.553310000000     0.976920000000     0.346400000000     0.0378795  
H111     H      0.411070000000     0.978490000000     0.155420000000     0.0337012  
H112     H      0.508510000000     0.034500000000     0.159380000000     0.0344757  
H113     H      0.407500000000     0.988000000000     0.089600000000     0.0386309  
H114     H      0.477030000000     0.912040000000     0.372160000000     0.0148567  
H115     H      0.442010000000     0.006430000000     0.282490000000     0.0401603  
H116     H      0.531240000000     0.011720000000     0.369960000000     0.0388335  
H117     H      0.504610000000     0.953740000000     0.179220000000     0.0409373  
H118     H      0.481730000000     0.010490000000     0.328470000000     0.0381825  
H119     H      0.506440000000     0.044380000000     0.093500000000     0.040304   
H120     H      0.448820000000     0.960430000000     0.132170000000     0.0387037  
H121     H      0.506620000000     0.993840000000     0.134080000000     0.0388495  
H122     H      0.521640000000     0.936490000000     0.239750000000     0.0451332  
H123     H      0.450520000000     0.952240000000     0.328860000000     0.0427588  
H124     H      0.407270000000     0.028670000000     0.114700000000     0.0361948  
H125     H      0.540020000000     0.898910000000     0.369170000000     0.090693   
H126     H      0.517080000000     0.881920000000     0.334130000000     0.0788584  
H127     H      0.070480000000     0.479160000000     0.777060000000     0.0433198  
H128     H      0.064670000000     0.547860000000     0.669450000000     0.0349333  
H129     H      0.962540000000     0.503090000000     0.684010000000     0.0413305  
H130     H      0.074830000000     0.532530000000     0.887770000000     0.0355038  
H131     H      0.028900000000     0.570410000000     0.621200000000     0.0388665  
H132     H      0.016810000000     0.457860000000     0.827210000000     0.0335827  
H133     H      0.048350000000     0.565200000000     0.839020000000     0.0344545  
H134     H      0.010160000000     0.451930000000     0.892960000000     0.0397696  
H135     H      0.956100000000     0.495840000000     0.618050000000     0.0165205  
H136     H      0.060640000000     0.484600000000     0.713050000000     0.0401651  
H137     H      0.059690000000     0.539040000000     0.603280000000     0.0396925  
H138     H      0.984460000000     0.551820000000     0.796540000000     0.0405409  
H139     H      0.056570000000     0.502560000000     0.656150000000     0.0369485  
H140     H      0.040830000000     0.560730000000     0.905270000000     0.0407626  
H141     H      0.985910000000     0.489520000000     0.845350000000     0.0387251  
H142     H      0.004340000000     0.552250000000     0.852730000000     0.0379898  
H143     H      0.976890000000     0.559870000000     0.732520000000     0.0448585  
H144     H      0.997260000000     0.477120000000     0.664290000000     0.043315   
H145     H      0.054830000000     0.461420000000     0.879320000000     0.0368721  
H146     H      0.947170000000     0.558700000000     0.606540000000     0.0897761  
H147     H      0.930920000000     0.545690000000     0.646710000000     0.0785336  
H148     H      0.021040000000     0.437280000000     0.274840000000     0.0433243  
H149     H      0.986540000000     0.543100000000     0.181660000000     0.0341285  
H150     H      0.949890000000     0.437450000000     0.169170000000     0.0420047  
H151     H      0.039780000000     0.453220000000     0.376490000000     0.0372375  
H152     H      0.947980000000     0.542400000000     0.129920000000     0.0398283  
H153     H      0.934680000000     0.453790000000     0.338240000000     0.0342386  
H154     H      0.039560000000     0.491970000000     0.324870000000     0.0336333  
H155     H      0.939950000000     0.460950000000     0.404500000000     0.0407148  
H156     H      0.957470000000     0.442540000000     0.102690000000     0.0178467  
H157     H      0.013470000000     0.446520000000     0.210980000000     0.0400657  
H158     H      0.992970000000     0.549440000000     0.115960000000     0.0388081  
H159     H      0.942880000000     0.517960000000     0.295900000000     0.0403782  
H160     H      0.015510000000     0.510050000000     0.162840000000     0.0385217  
H161     H      0.046210000000     0.498270000000     0.390720000000     0.0396276  
H162     H      0.945340000000     0.498340000000     0.352290000000     0.0376627  
H163     H      0.006400000000     0.520550000000     0.344070000000     0.038621   
H164     H      0.932850000000     0.524740000000     0.232060000000     0.0442039  
H165     H      0.993870000000     0.448890000000     0.154640000000     0.0420896  
H166     H      0.969370000000     0.428530000000     0.386070000000     0.0356019  
H167     H      0.905730000000     0.479880000000     0.094550000000     0.0865682  
H168     H      0.901080000000     0.450500000000     0.128560000000     0.0786798  
H169     H      0.276420000000     0.942260000000     0.438490000000     0.0432948  
H170     H      0.171420000000     0.011120000000     0.440030000000     0.0345265  
H171     H      0.178920000000     0.965510000000     0.542970000000     0.0412325  
H172     H      0.383380000000     0.001430000000     0.431790000000     0.0361112  
H173     H      0.122950000000     0.037280000000     0.471500000000     0.0379495  
H174     H      0.327200000000     0.924130000000     0.494960000000     0.0334066  
H175     H      0.334080000000     0.030600000000     0.459610000000     0.0343355  
H176     H      0.393270000000     0.921320000000     0.500190000000     0.0390878  
H177     H      0.112350000000     0.963090000000     0.546770000000     0.0155176  
H178     H      0.212430000000     0.946950000000     0.447100000000     0.0399176  
H179     H      0.104830000000     0.004510000000     0.442280000000     0.0385156  
H180     H      0.293170000000     0.016170000000     0.524500000000     0.0402463  
H181     H      0.155480000000     0.966740000000     0.448060000000     0.0355496  
H182     H      0.400520000000     0.028590000000     0.466890000000     0.0406106  
H183     H      0.345210000000     0.957750000000     0.523850000000     0.0377107  
H184     H      0.349290000000     0.018930000000     0.503670000000     0.0365391  
H185     H      0.229190000000     0.023300000000     0.530910000000     0.0451402  
H186     H      0.158650000000     0.941580000000     0.507020000000     0.0424315  
H187     H      0.377470000000     0.926200000000     0.455350000000     0.0378201  
H188     H      0.106390000000     0.026670000000     0.557640000000     0.0925642  
H189     H      0.144240000000     0.009400000000     0.574860000000     0.0784003  
H190     H      0.741280000000     0.933090000000     0.458430000000     0.0437452  
H191     H      0.830560000000     0.977510000000     0.565180000000     0.034369   
H192     H      0.826390000000     0.025140000000     0.462780000000     0.0420183  
H193     H      0.634430000000     0.911680000000     0.465510000000     0.0373752  
H194     H      0.872860000000     0.026090000000     0.565030000000     0.0401319  
H195     H      0.679260000000     0.014230000000     0.459250000000     0.034159   
H196     H      0.678670000000     0.915020000000     0.512450000000     0.0341249  
H197     H      0.613500000000     0.012600000000     0.453610000000     0.0400478  
H198     H      0.892520000000     0.032170000000     0.462950000000     0.0172328  
H199     H      0.802740000000     0.948500000000     0.472130000000     0.0404176  
H200     H      0.896400000000     0.984690000000     0.566630000000     0.0381955  
H201     H      0.705270000000     0.007390000000     0.537790000000     0.0401335  
H202     H      0.852190000000     0.955950000000     0.528210000000     0.0381333  
H203     H      0.612060000000     0.912710000000     0.507850000000     0.0380802  
H204     H      0.656770000000     0.010570000000     0.501570000000     0.0373796  
H205     H      0.657170000000     0.952420000000     0.533100000000     0.0378044  
H206     H      0.766600000000     0.025300000000     0.549020000000     0.0446081  
H207     H      0.850650000000     0.984480000000     0.468420000000     0.0424352  
H208     H      0.635410000000     0.977520000000     0.430270000000     0.0351832  
H209     H      0.892560000000     0.080150000000     0.506010000000     0.0858333  
H210     H      0.856110000000     0.080240000000     0.479430000000     0.0783764  
H211     H      0.027790000000     0.719500000000     0.518860000000     0.0434196  
H212     H      0.961890000000     0.824760000000     0.542250000000     0.0350763  
H213     H      0.992530000000     0.830830000000     0.433640000000     0.0413256  
H214     H      0.955240000000     0.616370000000     0.528520000000     0.0369219  
H215     H      0.936780000000     0.879160000000     0.519990000000     0.0378161  
H216     H      0.033990000000     0.674520000000     0.462110000000     0.0330925  
H217     H      0.930020000000     0.668090000000     0.503940000000     0.0340932  
H218     H      0.034450000000     0.607890000000     0.454690000000     0.0374357  
H219     H      0.001950000000     0.896650000000     0.440020000000     0.0153285  
H220     H      0.025730000000     0.784110000000     0.517310000000     0.0402301  
H221     H      0.972380000000     0.889870000000     0.549560000000     0.0395042  
H222     H      0.936670000000     0.715040000000     0.449630000000     0.0398818  
H223     H      0.006200000000     0.838840000000     0.530980000000     0.0371452  
H224     H      0.931030000000     0.601180000000     0.490650000000     0.0391782  
H225     H      0.997990000000     0.657510000000     0.435790000000     0.0369271  
H226     H      0.939420000000     0.654870000000     0.458750000000     0.0349684  
H227     H      0.932610000000     0.779650000000     0.450980000000     0.0448099  
H228     H      0.023570000000     0.842520000000     0.467950000000     0.0427648  
H229     H      0.036380000000     0.623620000000     0.499620000000     0.0400147  
H230     H      0.938940000000     0.910430000000     0.441360000000     0.0906815  
H231     H      0.948450000000     0.874640000000     0.415580000000     0.078271   
H232     H      0.989620000000     0.277500000000     0.581420000000     0.0430893  
H233     H      0.045420000000     0.162560000000     0.582370000000     0.0347012  
H234     H      0.008830000000     0.180710000000     0.477030000000     0.0409268  
H235     H      0.047240000000     0.387940000000     0.571100000000     0.0360871  
H236     H      0.065380000000     0.111450000000     0.550020000000     0.0382038  
H237     H      0.967960000000     0.319750000000     0.525640000000     0.0332958  
H238     H      0.076930000000     0.336520000000     0.547540000000     0.0342545  
H239     H      0.960100000000     0.383780000000     0.512560000000     0.0396327  
H240     H      0.996800000000     0.116190000000     0.469650000000     0.0154612  
H241     H      0.991400000000     0.213160000000     0.576370000000     0.0399507  
H242     H      0.028490000000     0.097770000000     0.576610000000     0.0384229  
H243     H      0.063210000000     0.286210000000     0.493890000000     0.0401463  
H244     H      0.999710000000     0.154250000000     0.570940000000     0.0358882  
H245     H      0.070040000000     0.401160000000     0.531430000000     0.040657   
H246     H      0.997160000000     0.335070000000     0.490950000000     0.0383904  
H247     H      0.059910000000     0.344680000000     0.503310000000     0.0368875  
H248     H      0.067490000000     0.221930000000     0.491080000000     0.044737   
H249     H      0.979560000000     0.163310000000     0.510390000000     0.042483   
H250     H      0.972060000000     0.375020000000     0.558050000000     0.0373747  
H251     H      0.059120000000     0.099860000000     0.464160000000     0.091102   
H252     H      0.050160000000     0.140780000000     0.447560000000     0.0782078  
N1       N      0.602780000000     0.507140000000     0.995200000000    -0.182939   
N2       N      0.676280000000     0.515680000000     0.986220000000    -0.106199   
N3       N      0.826310000000     0.510430000000     0.966490000000    -0.113483   
N4       N      0.900450000000     0.508550000000     0.974930000000    -0.172858   
N5       N      0.622730000000     0.559340000000     0.025870000000    -0.190504   
N6       N      0.396800000000     0.503380000000     0.019420000000    -0.183084   
N7       N      0.322930000000     0.504580000000     0.028950000000    -0.106307   
N8       N      0.173120000000     0.491960000000     0.044770000000    -0.113368   
N9       N      0.099430000000     0.495200000000     0.033110000000    -0.172478   
N10      N      0.372480000000     0.556510000000     0.994110000000    -0.190505   
N11      N      0.478120000000     0.903180000000     0.005230000000    -0.183395   
N12      N      0.486450000000     0.830150000000     0.018320000000    -0.106264   
N13      N      0.507290000000     0.680310000000     0.012560000000    -0.113166   
N14      N      0.502430000000     0.605880000000     0.011030000000    -0.17288    
N15      N      0.427760000000     0.878700000000     0.035680000000    -0.190855   
N16      N      0.456240000000     0.105790000000     0.965910000000    -0.184215   
N17      N      0.458000000000     0.180170000000     0.968780000000    -0.106658   
N18      N      0.491470000000     0.324650000000     0.996080000000    -0.113171   
N19      N      0.500300000000     0.398450000000     0.002090000000    -0.172694   
N20      N      0.403060000000     0.130690000000     0.941390000000    -0.19086    
N21      N      0.507620000000     0.972970000000     0.582960000000    -0.183002   
N22      N      0.508650000000     0.977690000000     0.657820000000    -0.106348   
N23      N      0.485930000000     0.994480000000     0.807370000000    -0.113061   
N24      N      0.479100000000     0.993130000000     0.881960000000    -0.17216    
N25      N      0.561270000000     0.000960000000     0.602630000000    -0.190703   
N26      N      0.508300000000     0.959380000000     0.374750000000    -0.184224   
N27      N      0.498200000000     0.963670000000     0.300640000000    -0.106673   
N28      N      0.458820000000     0.007800000000     0.161600000000    -0.1139     
N29      N      0.455420000000     0.019060000000     0.087610000000    -0.173221   
N30      N      0.525950000000     0.905330000000     0.346070000000    -0.190934   
N31      N      0.005070000000     0.522150000000     0.605740000000    -0.183567   
N32      N      0.012480000000     0.529220000000     0.680100000000    -0.106279   
N33      N      0.035790000000     0.510980000000     0.829480000000    -0.113498   
N34      N      0.029090000000     0.504700000000     0.903990000000    -0.17271    
N35      N      0.954070000000     0.549820000000     0.632000000000    -0.190577   
N36      N      0.970900000000     0.497980000000     0.104410000000    -0.183325   
N37      N      0.964700000000     0.491120000000     0.178950000000    -0.106552   
N38      N      0.987890000000     0.469560000000     0.327950000000    -0.113445   
N39      N      0.995290000000     0.475350000000     0.402450000000    -0.172471   
N40      N      0.914490000000     0.473250000000     0.120130000000    -0.190584   
N41      N      0.103990000000     0.991800000000     0.498250000000    -0.183172   
N42      N      0.178310000000     0.992770000000     0.493220000000    -0.106102   
N43      N      0.327320000000     0.976230000000     0.473210000000    -0.113275   
N44      N      0.401760000000     0.972270000000     0.476100000000    -0.172251   
N45      N      0.130910000000     0.015530000000     0.551220000000    -0.190738   
N46      N      0.898430000000     0.012820000000     0.516660000000    -0.183675   
N47      N      0.824480000000     0.003540000000     0.515280000000    -0.106757   
N48      N      0.682960000000     0.963390000000     0.483700000000    -0.113651   
N49      N      0.608850000000     0.960250000000     0.476580000000    -0.173307   
N50      N      0.869120000000     0.066700000000     0.499920000000    -0.190573   
N51      N      0.982130000000     0.898660000000     0.493500000000    -0.183662   
N52      N      0.973250000000     0.824840000000     0.486640000000    -0.106454   
N53      N      0.983920000000     0.673930000000     0.488360000000    -0.112501   
N54      N      0.987540000000     0.599920000000     0.485630000000    -0.17203    
N55      N      0.947640000000     0.884130000000     0.441750000000    -0.190872   
N56      N      0.019090000000     0.101320000000     0.520100000000    -0.183601   
N57      N      0.031940000000     0.174410000000     0.528580000000    -0.105899   
N58      N      0.022070000000     0.325090000000     0.541050000000    -0.113192   
N59      N      0.013170000000     0.398150000000     0.527700000000    -0.172477   
N60      N      0.051740000000     0.125700000000     0.470890000000    -0.190478   
Ni1      Ni     0.998650000000     0.004560000000     0.475830000000     0.998911   
Ni2      Ni     0.003220000000     0.995160000000     0.538330000000     0.99438    
Ni3      Ni     0.031500000000     0.502280000000     0.501720000000     0.994502   
Ni4      Ni     0.969140000000     0.494810000000     0.506560000000     0.999166   
Ni5      Ni     0.503280000000     0.934770000000     0.481100000000     0.990223   
Ni6      Ni     0.507490000000     0.997540000000     0.476440000000     1.00539    
Ni7      Ni     0.498260000000     0.008650000000     0.987970000000     1.00248    
Ni8      Ni     0.436130000000     0.000290000000     0.982030000000     0.991054   
Ni9      Ni     0.001690000000     0.532750000000     0.005800000000     1.0046     
Ni10     Ni     0.998000000000     0.469920000000     0.002480000000     0.990858   
Ni11     Ni     0.503460000000     0.500740000000     0.038490000000     0.996805   
Ni12     Ni     0.496220000000     0.503550000000     0.975560000000     0.999829   
O1       O      0.005050000000     0.053930000000     0.484750000000    -0.456447   
O2       O      0.992560000000     0.954250000000     0.470960000000    -0.453158   
O3       O      0.948720000000     0.010290000000     0.482550000000    -0.454956   
O4       O      0.048970000000     0.999100000000     0.473370000000    -0.454004   
O5       O      0.052990000000     0.987790000000     0.531340000000    -0.453108   
O6       O      0.953130000000     0.002760000000     0.541130000000    -0.451619   
O7       O      0.994160000000     0.946110000000     0.529600000000    -0.452815   
O8       O      0.011870000000     0.045170000000     0.542900000000    -0.451438   
O9       O      0.022960000000     0.550830000000     0.489920000000    -0.45094    
O10      O      0.035930000000     0.453040000000     0.514120000000    -0.449072   
O11      O      0.027070000000     0.490150000000     0.452350000000    -0.450439   
O12      O      0.031700000000     0.514520000000     0.551290000000    -0.451336   
O13      O      0.973870000000     0.504800000000     0.556340000000    -0.45431    
O14      O      0.968590000000     0.484750000000     0.456530000000    -0.451447   
O15      O      0.977550000000     0.445780000000     0.515850000000    -0.452885   
O16      O      0.964850000000     0.544640000000     0.497210000000    -0.451162   
O17      O      0.554280000000     0.933830000000     0.481590000000    -0.448211   
O18      O      0.452900000000     0.939920000000     0.480800000000    -0.450585   
O19      O      0.503220000000     0.933420000000     0.429840000000    -0.450745   
O20      O      0.503120000000     0.940310000000     0.531720000000    -0.451919   
O21      O      0.507710000000     0.998890000000     0.527570000000    -0.453809   
O22      O      0.508030000000     0.992040000000     0.425970000000    -0.45575    
O23      O      0.456660000000     0.998510000000     0.475920000000    -0.451629   
O24      O      0.557680000000     0.992440000000     0.476260000000    -0.455795   
O25      O      0.490040000000     0.018040000000     0.037460000000    -0.45219    
O26      O      0.502240000000     0.999530000000     0.938040000000    -0.45232    
O27      O      0.490870000000     0.057460000000     0.977100000000    -0.45486    
O28      O      0.501570000000     0.958950000000     0.998310000000    -0.451986   
O29      O      0.444080000000     0.950710000000     0.988730000000    -0.453752   
O30      O      0.432350000000     0.050790000000     0.976020000000    -0.4507     
O31      O      0.443880000000     0.994640000000     0.931810000000    -0.449739   
O32      O      0.432610000000     0.006000000000     0.032600000000    -0.451785   
O33      O      0.050170000000     0.527410000000     0.018740000000    -0.455151   
O34      O      0.952680000000     0.534030000000     0.992660000000    -0.452715   
O35      O      0.988550000000     0.528900000000     0.054910000000    -0.452982   
O36      O      0.015210000000     0.532410000000     0.956580000000    -0.451762   
O37      O      0.012840000000     0.473620000000     0.953850000000    -0.450661   
O38      O      0.982840000000     0.470400000000     0.051230000000    -0.452065   
O39      O      0.949870000000     0.475440000000     0.987360000000    -0.450514   
O40      O      0.046670000000     0.468640000000     0.017760000000    -0.447902   
O41      O      0.452950000000     0.500370000000     0.042330000000    -0.452768   
O42      O      0.553540000000     0.501610000000     0.030560000000    -0.45382    
O43      O      0.503690000000     0.551560000000     0.038580000000    -0.451255   
O44      O      0.502780000000     0.450110000000     0.034180000000    -0.450422   
O45      O      0.496940000000     0.452870000000     0.975290000000    -0.452559   
O46      O      0.496210000000     0.554050000000     0.979870000000    -0.453137   
O47      O      0.546800000000     0.503780000000     0.971750000000    -0.451979   
O48      O      0.446070000000     0.503450000000     0.983580000000    -0.453201   


