data_structure

_audit_creation_method RASPA-1.0
_audit_creation_date 2023-6-5
_audit_author_name 'Poobodin Mano'

_cell_length_a    60.6256
_cell_length_b    61.4323
_cell_length_c    36.8618
_cell_angle_alpha 89.9554
_cell_angle_beta  90.0442
_cell_angle_gamma 119.909
_cell_volume      119003

_symmetry_cell_setting          triclinic
_symmetry_space_group_name_Hall 'P 1'
_symmetry_space_group_name_H-M  'P 1'
_symmetry_Int_Tables_number     1

_symmetry_equiv_pos_as_xyz 'x,y,z'

loop_
_atom_site_label
_atom_site_type_symbol
_atom_site_fract_x
_atom_site_fract_y
_atom_site_fract_z
_atom_site_charge
C1       C      0.883840000000     0.670940000000     0.677630000000     0.432865   
C2       C      0.854750000000     0.646370000000     0.546670000000     0.429363   
C3       C      0.916120000000     0.681890000000     0.591480000000     0.431989   
C4       C      0.823190000000     0.635530000000     0.632480000000     0.430679   
C5       C      0.143680000000     0.809350000000     0.897740000000     0.428982   
C6       C      0.178710000000     0.837800000000     0.769820000000     0.430329   
C7       C      0.205680000000     0.850880000000     0.860670000000     0.428283   
C8       C      0.116800000000     0.796340000000     0.807320000000     0.429089   
C9       C      0.487410000000     0.999500000000     0.033840000000     0.432048   
C10      C      0.528800000000     0.006990000000     0.910320000000     0.429718   
C11      C      0.551860000000     0.022730000000     0.002910000000     0.428698   
C12      C      0.464290000000     0.983800000000     0.943040000000     0.427253   
C13      C      0.179660000000     0.342050000000     0.375920000000     0.429262   
C14      C      0.205830000000     0.347350000000     0.243110000000     0.428896   
C15      C      0.239370000000     0.363340000000     0.327550000000     0.427989   
C16      C      0.146130000000     0.326010000000     0.290750000000     0.427974   
C17      C      0.869550000000     0.196040000000     0.069520000000     0.429464   
C18      C      0.833890000000     0.164080000000     0.196190000000     0.428897   
C19      C      0.806970000000     0.153690000000     0.106590000000     0.426811   
C20      C      0.895890000000     0.206080000000     0.160990000000     0.42807    
C21      C      0.547930000000     0.498110000000     0.439950000000     0.43308    
C22      C      0.510250000000     0.487610000000     0.566880000000     0.431012   
C23      C      0.484710000000     0.472710000000     0.474720000000     0.427787   
C24      C      0.573170000000     0.512990000000     0.532000000000     0.428813   
C25      C      0.181490000000     0.342110000000     0.753370000000     0.429957   
C26      C      0.220890000000     0.341720000000     0.875260000000     0.434211   
C27      C      0.228060000000     0.330750000000     0.778310000000     0.433982   
C28      C      0.171000000000     0.354130000000     0.849610000000     0.429475   
C29      C      0.361680000000     0.189560000000     0.553070000000     0.428035   
C30      C      0.358120000000     0.167310000000     0.687440000000     0.42747    
C31      C      0.377060000000     0.148890000000     0.605880000000     0.428356   
C32      C      0.342590000000     0.207810000000     0.634210000000     0.428151   
C33      C      0.993360000000     0.488270000000     0.932100000000     0.427937   
C34      C      0.999440000000     0.457920000000     0.059000000000     0.430859   
C35      C      0.019850000000     0.451630000000     0.970040000000     0.427328   
C36      C      0.972990000000     0.494190000000     0.022780000000     0.428101   
C37      C      0.684920000000     0.839130000000     0.284750000000     0.428344   
C38      C      0.682990000000     0.800820000000     0.408850000000     0.431012   
C39      C      0.697580000000     0.791190000000     0.316120000000     0.429      
C40      C      0.670370000000     0.849360000000     0.375700000000     0.429153   
C41      C      0.836150000000     0.662000000000     0.045070000000     0.429613   
C42      C      0.819440000000     0.645460000000     0.180660000000     0.430235   
C43      C      0.849090000000     0.626600000000     0.111600000000     0.427921   
C44      C      0.806680000000     0.680530000000     0.114900000000     0.429611   
C45      C      0.516440000000     0.996030000000     0.400120000000     0.42896    
C46      C      0.516140000000     0.000110000000     0.538500000000     0.429357   
C47      C      0.545350000000     0.978920000000     0.470990000000     0.426906   
C48      C      0.487200000000     0.017070000000     0.467020000000     0.430963   
C49      C      0.371870000000     0.201930000000     0.180110000000     0.429119   
C50      C      0.357170000000     0.156000000000     0.059230000000     0.43038    
C51      C      0.346690000000     0.137740000000     0.155060000000     0.427946   
C52      C      0.382490000000     0.220390000000     0.085120000000     0.428057   
C53      C      0.526200000000     0.510290000000     0.069280000000     0.428936   
C54      C      0.523290000000     0.525290000000     0.933560000000     0.42936    
C55      C      0.500130000000     0.470440000000     0.990700000000     0.428453   
C56      C      0.549260000000     0.565270000000     0.011570000000     0.429343   
C57      C      0.176540000000     0.841040000000     0.265980000000     0.428792   
C58      C      0.200810000000     0.866810000000     0.398230000000     0.429396   
C59      C      0.216860000000     0.898980000000     0.311870000000     0.427919   
C60      C      0.160300000000     0.808370000000     0.354220000000     0.427709   
C61      C      0.002460000000     0.519330000000     0.557240000000     0.42677    
C62      C      0.002790000000     0.510840000000     0.419240000000     0.427082   
C63      C      0.982330000000     0.467410000000     0.494790000000     0.42814    
C64      C      0.022760000000     0.562570000000     0.481640000000     0.427627   
C65      C      0.827150000000     0.155520000000     0.569260000000     0.429582   
C66      C      0.845350000000     0.187640000000     0.699380000000     0.433137   
C67      C      0.861700000000     0.217010000000     0.608300000000     0.428402   
C68      C      0.812640000000     0.128260000000     0.659550000000     0.435986   
C69      C      0.691620000000     0.858260000000     0.911090000000     0.427559   
C70      C      0.683950000000     0.837660000000     0.775660000000     0.426649   
C71      C      0.668840000000     0.801280000000     0.859960000000     0.429222   
C72      C      0.706450000000     0.894180000000     0.828090000000     0.428523   
C73      C      0.796990000000     0.084520000000     0.736540000000    -0.0297732  
C74      C      0.747160000000     0.954490000000     0.782120000000    -0.0311265  
C75      C      0.702650000000     0.932380000000     0.829090000000    -0.00550641 
C76      C      0.743540000000     0.934070000000     0.809060000000    -0.00399903 
C77      C      0.770850000000     0.012000000000     0.782780000000    -0.0533287  
C78      C      0.739090000000     0.020750000000     0.737760000000    -0.0532561  
C79      C      0.745440000000     0.992980000000     0.778380000000     0.0606841  
C80      C      0.708960000000     0.953950000000     0.802620000000    -0.0307369  
C81      C      0.764660000000     0.039590000000     0.741570000000     0.0604147  
C82      C      0.776110000000     0.060050000000     0.682790000000    -0.0415665  
C83      C      0.780600000000     0.034660000000     0.763950000000    -0.0547916  
C84      C      0.779650000000     0.083450000000     0.662290000000     0.0368373  
C85      C      0.802120000000     0.108950000000     0.718260000000    -0.00744725 
C86      C      0.729700000000     0.997520000000     0.755020000000    -0.0549839  
C87      C      0.874620000000     0.278450000000     0.567390000000    -0.0308047  
C88      C      0.975810000000     0.406150000000     0.520750000000    -0.0306647  
C89      C      0.943490000000     0.425720000000     0.495350000000    -0.00499478 
C90      C      0.987290000000     0.429840000000     0.497170000000    -0.00527898 
C91      C      0.926460000000     0.344270000000     0.505750000000    -0.054361   
C92      C      0.925470000000     0.338040000000     0.581020000000    -0.0535293  
C93      C      0.937740000000     0.365440000000     0.528190000000     0.0615026  
C94      C      0.934050000000     0.402470000000     0.519360000000    -0.030522   
C95      C      0.914210000000     0.316830000000     0.558540000000     0.0603219  
C96      C      0.913520000000     0.277270000000     0.563060000000    -0.0412908  
C97      C      0.914700000000     0.320170000000     0.520640000000    -0.0559087  
C98      C      0.902540000000     0.252210000000     0.584200000000     0.0354071  
C99      C      0.861670000000     0.255350000000     0.591620000000    -0.00482892 
C100     C      0.937050000000     0.362190000000     0.566090000000    -0.0566318  
C101     C      0.103260000000     0.751520000000     0.392740000000    -0.0303168  
C102     C      0.071980000000     0.626720000000     0.457380000000    -0.0305467  
C103     C      0.017870000000     0.600070000000     0.474730000000    -0.00533846 
C104     C      0.061350000000     0.604520000000     0.483610000000    -0.00513121 
C105     C      0.078670000000     0.685280000000     0.460500000000    -0.0543934  
C106     C      0.085880000000     0.687630000000     0.385350000000    -0.0535345  
C107     C      0.068830000000     0.663010000000     0.440500000000     0.0614386  
C108     C      0.030310000000     0.622670000000     0.449000000000    -0.0306666  
C109     C      0.096250000000     0.709930000000     0.405470000000     0.060255   
C110     C      0.138790000000     0.744640000000     0.398880000000    -0.0413803  
C111     C      0.092280000000     0.708550000000     0.443300000000    -0.0558875  
C112     C      0.156510000000     0.767920000000     0.375870000000     0.0358461  
C113     C      0.117610000000     0.773970000000     0.367550000000    -0.00620753 
C114     C      0.072270000000     0.664320000000     0.402610000000    -0.0565871  
C115     C      0.620170000000     0.740710000000     0.898330000000    -0.030275   
C116     C      0.600240000000     0.625530000000     0.987630000000    -0.0308214  
C117     C      0.549360000000     0.605570000000     0.017860000000    -0.00531892 
C118     C      0.590430000000     0.605120000000     0.016800000000    -0.00461186 
C119     C      0.610200000000     0.686450000000     0.982180000000    -0.0544737  
C120     C      0.609670000000     0.680560000000     0.906880000000    -0.0538179  
C121     C      0.598770000000     0.662270000000     0.967360000000     0.0614874  
C122     C      0.560040000000     0.626000000000     0.988570000000    -0.030745   
C123     C      0.621480000000     0.704760000000     0.921730000000     0.0605606  
C124     C      0.660610000000     0.742260000000     0.905100000000    -0.0414542  
C125     C      0.621340000000     0.707560000000     0.959680000000    -0.0560138  
C126     C      0.673380000000     0.763220000000     0.876290000000     0.0343219  
C127     C      0.630450000000     0.760240000000     0.868100000000    -0.00701703 
C128     C      0.598260000000     0.659440000000     0.929390000000    -0.0565929  
C129     C      0.300170000000     0.080130000000     0.206970000000    -0.0305224  
C130     C      0.271900000000     0.955700000000     0.271280000000    -0.0305137  
C131     C      0.221780000000     0.940760000000     0.301290000000    -0.00477567 
C132     C      0.259960000000     0.933980000000     0.298470000000    -0.00533962 
C133     C      0.288130000000     0.019360000000     0.278270000000    -0.054394   
C134     C      0.290880000000     0.020490000000     0.202500000000    -0.0533523  
C135     C      0.276840000000     0.996780000000     0.258880000000     0.0616886  
C136     C      0.235430000000     0.961830000000     0.273600000000    -0.0304656  
C137     C      0.302180000000     0.043110000000     0.221910000000     0.0603505  
C138     C      0.340870000000     0.082760000000     0.212350000000    -0.0415038  
C139     C      0.300550000000     0.042340000000     0.260100000000    -0.0557865  
C140     C      0.354160000000     0.106420000000     0.187920000000     0.0362098  
C141     C      0.309180000000     0.101060000000     0.179030000000    -0.00449832 
C142     C      0.278150000000     0.997470000000     0.220720000000    -0.0565945  
C143     C      0.485670000000     0.403270000000     0.981400000000    -0.0309457  
C144     C      0.388570000000     0.279870000000     0.050990000000    -0.0307706  
C145     C      0.418600000000     0.254750000000     0.052410000000    -0.0050986  
C146     C      0.375050000000     0.251140000000     0.051920000000    -0.00513376 
C147     C      0.433060000000     0.334210000000     0.053490000000    -0.0565196  
C148     C      0.440850000000     0.350380000000     0.981280000000    -0.0561456  
C149     C      0.424920000000     0.316430000000     0.025250000000     0.0614598  
C150     C      0.430230000000     0.283260000000     0.051610000000    -0.0305364  
C151     C      0.449340000000     0.368200000000     0.009520000000     0.0607359  
C152     C      0.445840000000     0.402610000000     0.984080000000    -0.0418287  
C153     C      0.445200000000     0.359870000000     0.045560000000    -0.0534797  
C154     C      0.458610000000     0.431590000000     0.983300000000     0.0381247  
C155     C      0.501820000000     0.431850000000     0.982950000000    -0.00306217 
C156     C      0.428800000000     0.324740000000     0.989220000000    -0.0542909  
C157     C      0.656870000000     0.787500000000     0.496600000000    -0.0312885  
C158     C      0.700840000000     0.824940000000     0.683850000000    -0.030485   
C159     C      0.659800000000     0.829060000000     0.718470000000    -0.00501786 
C160     C      0.706290000000     0.840030000000     0.718870000000    -0.00521319 
C161     C      0.682180000000     0.832360000000     0.597360000000    -0.0536216  
C162     C      0.672740000000     0.783580000000     0.584730000000    -0.054202   
C163     C      0.678250000000     0.816420000000     0.626850000000     0.060998   
C164     C      0.656690000000     0.814430000000     0.683330000000    -0.0307865  
C165     C      0.677510000000     0.799800000000     0.555320000000     0.0613468  
C166     C      0.703290000000     0.806950000000     0.501340000000    -0.0431167  
C167     C      0.681640000000     0.824130000000     0.561840000000    -0.0563787  
C168     C      0.703980000000     0.794630000000     0.465430000000     0.037121   
C169     C      0.657080000000     0.775280000000     0.460380000000    -0.00657686 
C170     C      0.672910000000     0.791680000000     0.620230000000    -0.0561542  
C171     C      0.710750000000     0.875320000000     0.197180000000    -0.0308351  
C172     C      0.671290000000     0.855200000000     0.006190000000    -0.0306535  
C173     C      0.718750000000     0.874950000000     0.965690000000    -0.00557792 
C174     C      0.672480000000     0.863850000000     0.966950000000    -0.00499459 
C175     C      0.691740000000     0.843460000000     0.077280000000    -0.0565032  
C176     C      0.694810000000     0.881320000000     0.122730000000    -0.0560306  
C177     C      0.695200000000     0.866000000000     0.062090000000     0.0612446  
C178     C      0.715720000000     0.866180000000     0.005190000000    -0.0305133  
C179     C      0.692240000000     0.859140000000     0.138020000000     0.0605745  
C180     C      0.665530000000     0.849950000000     0.190780000000    -0.0415461  
C181     C      0.690540000000     0.840250000000     0.114940000000    -0.0534456  
C182     C      0.661620000000     0.839590000000     0.229860000000     0.0375177  
C183     C      0.710980000000     0.867140000000     0.236290000000    -0.00359878 
C184     C      0.696520000000     0.884740000000     0.085140000000    -0.0541712  
C185     C      0.742110000000     0.776280000000     0.268440000000    -0.0301186  
C186     C      0.756270000000     0.690400000000     0.144850000000    -0.0308071  
C187     C      0.809840000000     0.721790000000     0.126420000000    -0.00462644 
C188     C      0.767610000000     0.684020000000     0.112210000000    -0.00491723 
C189     C      0.751210000000     0.742770000000     0.170120000000    -0.0543554  
C190     C      0.743930000000     0.723980000000     0.240900000000    -0.0534863  
C191     C      0.758670000000     0.725240000000     0.179090000000     0.0616891  
C192     C      0.797550000000     0.727160000000     0.158890000000    -0.0309164  
C193     C      0.736350000000     0.741430000000     0.231890000000     0.060639   
C194     C      0.699780000000     0.744770000000     0.250160000000    -0.0413558  
C195     C      0.740280000000     0.750950000000     0.196210000000    -0.0558809  
C196     C      0.687360000000     0.751150000000     0.282010000000     0.0342371  
C197     C      0.732230000000     0.782980000000     0.302130000000    -0.00702374 
C198     C      0.755140000000     0.716000000000     0.214870000000    -0.0565601  
C199     C      0.625900000000     0.870770000000     0.406030000000    -0.0303538  
C200     C      0.603890000000     0.971910000000     0.466870000000    -0.03045    
C201     C      0.548380000000     0.940970000000     0.463940000000    -0.00429218 
C202     C      0.588350000000     0.985240000000     0.463130000000    -0.0046588  
C203     C      0.610430000000     0.931420000000     0.407600000000    -0.0540846  
C204     C      0.628430000000     0.915160000000     0.465480000000    -0.0536407  
C205     C      0.605960000000     0.936070000000     0.443210000000     0.0617172  
C206     C      0.566640000000     0.930810000000     0.467950000000    -0.0304166  
C207     C      0.632260000000     0.909860000000     0.429810000000     0.0604158  
C208     C      0.667550000000     0.907720000000     0.402990000000    -0.0415801  
C209     C      0.623470000000     0.918490000000     0.400810000000    -0.0558701  
C210     C      0.680950000000     0.891920000000     0.400290000000     0.0351602  
C211     C      0.636760000000     0.853190000000     0.406050000000    -0.00625868 
C212     C      0.615440000000     0.928230000000     0.472250000000    -0.05675    
C213     C      0.013570000000     0.524850000000     0.844100000000    -0.0309029  
C214     C      0.977750000000     0.508410000000     0.651310000000    -0.030825   
C215     C      0.026850000000     0.532680000000     0.614470000000    -0.00557098 
C216     C      0.979860000000     0.519140000000     0.613100000000    -0.00490372 
C217     C      0.997740000000     0.533840000000     0.733380000000    -0.0540341  
C218     C      0.997850000000     0.491240000000     0.759810000000    -0.0535207  
C219     C      0.999700000000     0.517430000000     0.708950000000     0.0611108  
C220     C      0.022750000000     0.521690000000     0.652730000000    -0.0304754  
C221     C      0.996750000000     0.508100000000     0.784330000000     0.060441   
C222     C      0.969970000000     0.492760000000     0.837370000000    -0.0415002  
C223     C      0.995910000000     0.529120000000     0.770670000000    -0.0559533  
C224     C      0.968360000000     0.482040000000     0.875840000000     0.036897   
C225     C      0.015980000000     0.516810000000     0.882410000000    -0.00415015 
C226     C      0.998960000000     0.495600000000     0.722420000000    -0.0563311  
C227     C      0.976280000000     0.448170000000     0.147480000000    -0.0315588  
C228     C      0.022830000000     0.500110000000     0.329590000000    -0.0305286  
C229     C      0.980700000000     0.504090000000     0.360350000000    -0.00495759 
C230     C      0.027280000000     0.516520000000     0.363010000000    -0.00543351 
C231     C      0.996210000000     0.462890000000     0.269540000000    -0.0561208  
C232     C      0.000950000000     0.490460000000     0.206680000000    -0.0564104  
C233     C      0.999990000000     0.487380000000     0.272490000000     0.0609423  
C234     C      0.978080000000     0.487960000000     0.327150000000    -0.030918   
C235     C      0.998590000000     0.466520000000     0.203810000000     0.0613967  
C236     C      0.023050000000     0.472060000000     0.148850000000    -0.043194   
C237     C      0.995780000000     0.452730000000     0.235450000000    -0.0542484  
C238     C      0.024020000000     0.457820000000     0.115280000000     0.0381216  
C239     C      0.976770000000     0.434030000000     0.113360000000    -0.00640268 
C240     C      0.001880000000     0.500820000000     0.240790000000    -0.0538271  
C241     C      0.961250000000     0.542540000000     0.068340000000    -0.0307029  
C242     C      0.859270000000     0.573620000000     0.088200000000    -0.0306051  
C243     C      0.887600000000     0.623250000000     0.121190000000    -0.00512445 
C244     C      0.844870000000     0.584510000000     0.108260000000    -0.00532974 
C245     C      0.905370000000     0.558600000000     0.115840000000    -0.0543706  
C246     C      0.915540000000     0.557650000000     0.042040000000    -0.0534397  
C247     C      0.897660000000     0.570660000000     0.090890000000     0.0615584  
C248     C      0.900080000000     0.610760000000     0.100250000000    -0.0305355  
C249     C      0.923000000000     0.545320000000     0.066970000000     0.0605333  
C250     C      0.920700000000     0.505090000000     0.062050000000    -0.0416082  
C251     C      0.918020000000     0.546110000000     0.104160000000    -0.0560425  
C252     C      0.932240000000     0.490480000000     0.043410000000     0.0370836  
C253     C      0.975620000000     0.532280000000     0.047090000000    -0.0041998  
C254     C      0.903090000000     0.570360000000     0.053800000000    -0.0565526  
C255     C      0.329810000000     0.127460000000     0.968270000000    -0.0312741  
C256     C      0.377640000000     0.173060000000     0.784170000000    -0.0304666  
C257     C      0.334140000000     0.140060000000     0.738960000000    -0.00487085 
C258     C      0.381650000000     0.170830000000     0.743730000000    -0.00548143 
C259     C      0.353930000000     0.128630000000     0.855270000000    -0.0537263  
C260     C      0.352300000000     0.166760000000     0.894470000000    -0.0539176  
C261     C      0.354190000000     0.148650000000     0.836650000000     0.0610567  
C262     C      0.332300000000     0.143940000000     0.779660000000    -0.030686   
C263     C      0.352880000000     0.147160000000     0.913080000000     0.0614777  
C264     C      0.376740000000     0.149270000000     0.967560000000    -0.0429278  
C265     C      0.353010000000     0.127690000000     0.893150000000    -0.0565671  
C266     C      0.374420000000     0.142440000000     0.008590000000     0.0393177  
C267     C      0.328620000000     0.134060000000     0.007960000000    -0.00102195 
C268     C      0.352660000000     0.167430000000     0.856550000000    -0.0561221  
C269     C      0.388330000000     0.220340000000     0.462640000000    -0.0306871  
C270     C      0.352300000000     0.205630000000     0.270630000000    -0.0307663  
C271     C      0.400290000000     0.225320000000     0.231670000000    -0.00501027 
C272     C      0.354610000000     0.214890000000     0.231490000000    -0.00504665 
C273     C      0.371400000000     0.191380000000     0.341290000000    -0.0565842  
C274     C      0.373220000000     0.227720000000     0.388780000000    -0.0559674  
C275     C      0.375040000000     0.214320000000     0.327390000000     0.0614862  
C276     C      0.396870000000     0.216140000000     0.270980000000    -0.030784   
C277     C      0.370720000000     0.205240000000     0.402840000000     0.0603469  
C278     C      0.343270000000     0.193990000000     0.455050000000    -0.0416796  
C279     C      0.369570000000     0.187090000000     0.378710000000    -0.0533953  
C280     C      0.339300000000     0.183460000000     0.494070000000     0.0368583  
C281     C      0.388330000000     0.211420000000     0.501230000000    -0.00482591 
C282     C      0.375660000000     0.232250000000     0.351440000000    -0.0544305  
C283     C      0.472990000000     0.065680000000     0.490520000000    -0.0307539  
C284     C      0.378560000000     0.094400000000     0.566730000000    -0.030718   
C285     C      0.413900000000     0.142200000000     0.600610000000    -0.00504138 
C286     C      0.368880000000     0.105700000000     0.595280000000    -0.00529586 
C287     C      0.424770000000     0.075700000000     0.568090000000    -0.0539398  
C288     C      0.424250000000     0.078270000000     0.492370000000    -0.0541163  
C289     C      0.414580000000     0.089200000000     0.551370000000     0.0612787  
C290     C      0.421730000000     0.129600000000     0.571610000000    -0.0306351  
C291     C      0.434430000000     0.064750000000     0.509100000000     0.0612338  
C292     C      0.433120000000     0.025850000000     0.492500000000    -0.0421702  
C293     C      0.434750000000     0.063650000000     0.547260000000    -0.0562945  
C294     C      0.443290000000     0.014180000000     0.464790000000     0.035      
C295     C      0.483840000000     0.055330000000     0.462410000000    -0.00643841 
C296     C      0.414510000000     0.090540000000     0.513220000000    -0.0562565  
C297     C      0.147260000000     0.393300000000     0.895840000000    -0.0308605  
C298     C      0.033040000000     0.402610000000     0.930870000000    -0.0303548  
C299     C      0.060780000000     0.453730000000     0.959570000000    -0.00453275 
C300     C      0.018510000000     0.412190000000     0.953670000000    -0.00523819 
C301     C      0.075890000000     0.400860000000     0.890730000000    -0.0565519  
C302     C      0.101690000000     0.386580000000     0.939620000000    -0.0558994  
C303     C      0.073540000000     0.403330000000     0.928300000000     0.0616445  
C304     C      0.072540000000     0.441850000000     0.935800000000    -0.0304909  
C305     C      0.103950000000     0.383910000000     0.902040000000     0.0604557  
C306     C      0.114020000000     0.350360000000     0.900890000000    -0.0414512  
C307     C      0.090860000000     0.391060000000     0.877830000000    -0.0533037  
C308     C      0.130240000000     0.340500000000     0.882040000000     0.0362466  
C309     C      0.164190000000     0.387580000000     0.872030000000    -0.00312184 
C310     C      0.086480000000     0.396040000000     0.952470000000    -0.0541103  
C311     C      0.276370000000     0.331890000000     0.713320000000    -0.0310374  
C312     C      0.296430000000     0.228410000000     0.658420000000    -0.0304324  
C313     C      0.350870000000     0.250940000000     0.644880000000    -0.00512874 
C314     C      0.305980000000     0.214820000000     0.633940000000    -0.00513962 
C315     C      0.298540000000     0.268280000000     0.710400000000    -0.0561076  
C316     C      0.282950000000     0.295160000000     0.666190000000    -0.0563602  
C317     C      0.302750000000     0.269390000000     0.672700000000     0.0613449  
C318     C      0.339160000000     0.263010000000     0.668610000000    -0.0306795  
C319     C      0.278510000000     0.293850000000     0.703840000000     0.0614246  
C320     C      0.237520000000     0.291100000000     0.710710000000    -0.0418533  
C321     C      0.286550000000     0.280470000000     0.725730000000    -0.0535162  
C322     C      0.223050000000     0.303840000000     0.726480000000     0.039919   
C323     C      0.265620000000     0.343200000000     0.740230000000     0.000156959
C324     C      0.295020000000     0.283050000000     0.650890000000    -0.0538946  
C325     C      0.494910000000     0.511140000000     0.647610000000    -0.0305741  
C326     C      0.530190000000     0.516870000000     0.837030000000    -0.0309221  
C327     C      0.504800000000     0.536740000000     0.881980000000    -0.0050558  
C328     C      0.542280000000     0.530000000000     0.872750000000    -0.00444893 
C329     C      0.523690000000     0.534890000000     0.756530000000    -0.0542777  
C330     C      0.481950000000     0.488000000000     0.739890000000    -0.0539747  
C331     C      0.508080000000     0.519610000000     0.784580000000     0.0614328  
C332     C      0.494380000000     0.523880000000     0.845390000000    -0.0309339  
C333     C      0.497650000000     0.503230000000     0.711840000000     0.0608753  
C334     C      0.509830000000     0.482820000000     0.667050000000    -0.0420097  
C335     C      0.518870000000     0.526700000000     0.720580000000    -0.0560949  
C336     C      0.502400000000     0.468830000000     0.630420000000     0.0355088  
C337     C      0.486590000000     0.497990000000     0.610960000000    -0.006218   
C338     C      0.487260000000     0.495850000000     0.776010000000    -0.056346   
C339     C      0.537230000000     0.475140000000     0.350870000000    -0.0329446  
C340     C      0.552620000000     0.514960000000     0.161420000000    -0.0310546  
C341     C      0.502960000000     0.493080000000     0.126550000000    -0.00553965 
C342     C      0.550300000000     0.508010000000     0.121300000000    -0.00380284 
C343     C      0.546260000000     0.487290000000     0.234200000000    -0.0528621  
C344     C      0.526420000000     0.509310000000     0.280270000000    -0.0546948  
C345     C      0.532470000000     0.497910000000     0.219220000000     0.0600428  
C346     C      0.507460000000     0.499390000000     0.167040000000    -0.0306888  
C347     C      0.539970000000     0.498450000000     0.295000000000     0.0623021  
C348     C      0.568710000000     0.520800000000     0.344580000000    -0.0431103  
C349     C      0.550730000000     0.488260000000     0.271480000000    -0.0569259  
C350     C      0.568510000000     0.524700000000     0.385910000000     0.0397174  
C351     C      0.553170000000     0.478160000000     0.384990000000    -0.00373234 
C352     C      0.523080000000     0.509550000000     0.242780000000    -0.0544307  
C353     C      0.857110000000     0.218620000000     0.788930000000    -0.0320031  
C354     C      0.875210000000     0.186880000000     0.974490000000    -0.030831   
C355     C      0.881760000000     0.228050000000     0.020850000000    -0.00512001 
C356     C      0.887480000000     0.190680000000     0.011940000000    -0.00498675 
C357     C      0.889840000000     0.218340000000     0.894720000000    -0.0537972  
C358     C      0.838130000000     0.192340000000     0.876920000000    -0.0541044  
C359     C      0.871650000000     0.208690000000     0.922470000000     0.0612584  
C360     C      0.869860000000     0.223490000000     0.982970000000    -0.0309057  
C361     C      0.856310000000     0.201810000000     0.849180000000     0.061511   
C362     C      0.853010000000     0.177200000000     0.796310000000    -0.0426284  
C363     C      0.882330000000     0.214830000000     0.858330000000    -0.0562399  
C364     C      0.839380000000     0.168640000000     0.759800000000     0.0372726  
C365     C      0.844260000000     0.211290000000     0.751570000000    -0.0034947  
C366     C      0.845630000000     0.195560000000     0.913260000000    -0.0561894  
C367     C      0.797230000000     0.140330000000     0.476110000000    -0.0308932  
C368     C      0.833090000000     0.139580000000     0.286760000000    -0.0308128  
C369     C      0.809760000000     0.165030000000     0.249800000000    -0.00534146 
C370     C      0.826130000000     0.134460000000     0.246540000000    -0.00467795 
C371     C      0.800220000000     0.125280000000     0.363870000000    -0.0541733  
C372     C      0.838960000000     0.166580000000     0.400300000000    -0.05332    
C373     C      0.817910000000     0.146140000000     0.343940000000     0.0615046  
C374     C      0.816870000000     0.168690000000     0.290030000000    -0.0306231  
C375     C      0.820650000000     0.146140000000     0.420310000000     0.0608079  
C376     C      0.831990000000     0.132220000000     0.474950000000    -0.041108   
C377     C      0.801720000000     0.125040000000     0.401670000000    -0.0559874  
C378     C      0.838270000000     0.138550000000     0.515640000000     0.0363958  
C379     C      0.801050000000     0.148430000000     0.515710000000    -0.00293517 
C380     C      0.837900000000     0.166500000000     0.362420000000    -0.0563805  
C381     C      0.176160000000     0.362040000000     0.658920000000    -0.0306009  
C382     C      0.169550000000     0.320300000000     0.470530000000    -0.0306317  
C383     C      0.171310000000     0.361530000000     0.428990000000    -0.00497321 
C384     C      0.160940000000     0.316240000000     0.430920000000    -0.0050994  
C385     C      0.192940000000     0.347670000000     0.540880000000    -0.0564596  
C386     C      0.151860000000     0.337120000000     0.586350000000    -0.0562747  
C387     C      0.169150000000     0.341340000000     0.525690000000     0.0614665  
C388     C      0.179620000000     0.363920000000     0.468690000000    -0.0308131  
C389     C      0.175460000000     0.342770000000     0.601530000000     0.0613004  
C390     C      0.162360000000     0.318000000000     0.656510000000    -0.0387035  
C391     C      0.195940000000     0.348230000000     0.578510000000    -0.0537406  
C392     C      0.170560000000     0.317290000000     0.696030000000     0.0302442  
C393     C      0.186230000000     0.364740000000     0.697490000000    -0.00517711 
C394     C      0.148800000000     0.336340000000     0.548720000000    -0.0540809  
C395     C      0.245840000000     0.368430000000     0.961960000000    -0.0322675  
C396     C      0.211530000000     0.326710000000     0.150840000000    -0.030645   
C397     C      0.224980000000     0.373400000000     0.188630000000    -0.00507991 
C398     C      0.216290000000     0.328450000000     0.191730000000    -0.00488628 
C399     C      0.249300000000     0.354080000000     0.077570000000    -0.0540719  
C400     C      0.205940000000     0.342670000000     0.036740000000    -0.0539503  
C401     C      0.227150000000     0.350130000000     0.095210000000     0.0613921  
C402     C      0.220100000000     0.369690000000     0.147790000000    -0.0305589  
C403     C      0.228160000000     0.346790000000     0.019120000000     0.0617755  
C404     C      0.230460000000     0.323000000000     0.968300000000    -0.0425326  
C405     C      0.249820000000     0.352280000000     0.039860000000    -0.0564806  
C406     C      0.222450000000     0.317620000000     0.928150000000     0.0393531  
C407     C      0.252870000000     0.364420000000     0.923330000000    -0.00322193 
C408     C      0.205300000000     0.344140000000     0.074520000000    -0.056234   
C409     C      0.958940000000     0.221340000000     0.201570000000    -0.0305898  
C410     C      0.085960000000     0.321390000000     0.256030000000    -0.0304586  
C411     C      0.104460000000     0.288250000000     0.281040000000    -0.00469654 
C412     C      0.109270000000     0.332000000000     0.280930000000    -0.00532732 
C413     C      0.041790000000     0.285120000000     0.208880000000    -0.0566599  
C414     C      0.998620000000     0.259960000000     0.252750000000    -0.0558592  
C415     C      0.044560000000     0.284210000000     0.246700000000     0.0616653  
C416     C      0.081750000000     0.280090000000     0.255670000000    -0.0304845  
C417     C      0.995740000000     0.261130000000     0.214950000000     0.060412   
C418     C      0.954070000000     0.257300000000     0.211810000000    -0.0415196  
C419     C      0.017520000000     0.273800000000     0.193280000000    -0.0534929  
C420     C      0.928780000000     0.245930000000     0.190250000000     0.0358899  
C421     C      0.936240000000     0.208740000000     0.176110000000    -0.00485275 
C422     C      0.022810000000     0.271570000000     0.268340000000    -0.0543313  
C423     C      0.307510000000     0.411360000000     0.348800000000    -0.0308134  
C424     C      0.420110000000     0.423840000000     0.442800000000    -0.0305783  
C425     C      0.452450000000     0.478410000000     0.442370000000    -0.00501626 
C426     C      0.448830000000     0.435200000000     0.447530000000    -0.00480768 
C427     C      0.383670000000     0.425790000000     0.371140000000    -0.0544075  
C428     C      0.343430000000     0.409130000000     0.420500000000    -0.053524   
C429     C      0.388840000000     0.428760000000     0.408370000000     0.0616532  
C430     C      0.423520000000     0.464680000000     0.438090000000    -0.0305186  
C431     C      0.338250000000     0.406050000000     0.383220000000     0.0603302  
C432     C      0.304550000000     0.370970000000     0.351160000000    -0.0416197  
C433     C      0.358660000000     0.414610000000     0.358540000000    -0.0559787  
C434     C      0.275670000000     0.356780000000     0.342880000000     0.0365281  
C435     C      0.279010000000     0.400690000000     0.344210000000    -0.00423649 
C436     C      0.368510000000     0.420450000000     0.433100000000    -0.0568115  
C437     C      0.501390000000     0.980120000000     0.636750000000    -0.0307933  
C438     C      0.530470000000     0.984310000000     0.820990000000    -0.0308615  
C439     C      0.552450000000     0.032880000000     0.857080000000    -0.00505446 
C440     C      0.539920000000     0.987300000000     0.860200000000    -0.00494691 
C441     C      0.516040000000     0.001810000000     0.749640000000    -0.0563412  
C442     C      0.552480000000     0.003700000000     0.701310000000    -0.0536992  
C443     C      0.539370000000     0.005330000000     0.763030000000     0.0615546  
C444     C      0.542950000000     0.028780000000     0.817880000000    -0.0307058  
C445     C      0.529570000000     0.000810000000     0.687780000000     0.0606222  
C446     C      0.529830000000     0.024600000000     0.635870000000    -0.0416205  
C447     C      0.511400000000     0.000080000000     0.712340000000    -0.0557718  
C448     C      0.532110000000     0.025950000000     0.594170000000     0.0377856  
C449     C      0.501310000000     0.977460000000     0.595550000000    -0.00425694 
C450     C      0.557370000000     0.006010000000     0.738590000000    -0.0546707  
C451     C      0.495020000000     0.020550000000     0.123340000000    -0.0315541  
C452     C      0.490940000000     0.974250000000     0.308530000000    -0.0306536  
C453     C      0.535400000000     0.016430000000     0.341550000000    -0.00472192 
C454     C      0.501550000000     0.970540000000     0.344160000000    -0.00515435 
C455     C      0.482640000000     0.999770000000     0.244590000000    -0.0561004  
C456     C      0.509090000000     0.995040000000     0.185790000000    -0.0564423  
C457     C      0.503440000000     0.996050000000     0.250880000000     0.0613199  
C458     C      0.523340000000     0.018480000000     0.306150000000    -0.0309146  
C459     C      0.487530000000     0.997520000000     0.179560000000     0.0618101  
C460     C      0.472240000000     0.974370000000     0.123020000000    -0.043255   
C461     C      0.474660000000     0.000250000000     0.209180000000    -0.0543747  
C462     C      0.459280000000     0.974200000000     0.087190000000     0.0379993  
C463     C      0.482620000000     0.020840000000     0.087160000000    -0.00606219 
C464     C      0.516770000000     0.994070000000     0.221230000000    -0.053865   
C465     C      0.611790000000     0.029460000000     0.045530000000    -0.0307909  
C466     C      0.740770000000     0.134610000000     0.074970000000    -0.0304986  
C467     C      0.772310000000     0.111900000000     0.089300000000    -0.00503076 
C468     C      0.765060000000     0.149520000000     0.097140000000    -0.00455084 
C469     C      0.698240000000     0.091450000000     0.031810000000    -0.0566891  
C470     C      0.659460000000     0.068310000000     0.083360000000    -0.0559923  
C471     C      0.704420000000     0.093000000000     0.068900000000     0.0615592  
C472     C      0.747330000000     0.099250000000     0.067880000000    -0.0304447  
C473     C      0.653160000000     0.067070000000     0.046310000000     0.060434   
C474     C      0.615060000000     0.069970000000     0.046890000000    -0.0417799  
C475     C      0.672780000000     0.078550000000     0.020720000000    -0.0533646  
C476     C      0.588990000000     0.060590000000     0.028440000000     0.0378319  
C477     C      0.586420000000     0.016950000000     0.025330000000    -0.00424845 
C478     C      0.684870000000     0.081130000000     0.094390000000    -0.0542454  
C479     C      0.207800000000     0.842660000000     0.677730000000    -0.0320101  
C480     C      0.187800000000     0.873290000000     0.492420000000    -0.0306601  
C481     C      0.228120000000     0.871900000000     0.451350000000    -0.00508643 
C482     C      0.195100000000     0.885270000000     0.454790000000    -0.00505016 
C483     C      0.219710000000     0.883110000000     0.574590000000    -0.053727   
C484     C      0.180330000000     0.835360000000     0.593880000000    -0.0546039  
C485     C      0.205010000000     0.866110000000     0.547400000000     0.0611381  
C486     C      0.219760000000     0.860240000000     0.489120000000    -0.0307189  
C487     C      0.194660000000     0.852590000000     0.621040000000     0.0619673  
C488     C      0.178820000000     0.860770000000     0.677310000000    -0.043633   
C489     C      0.214720000000     0.876420000000     0.611150000000    -0.0568021  
C490     C      0.186560000000     0.866280000000     0.717800000000     0.039548   
C491     C      0.198000000000     0.831450000000     0.715280000000    -0.000870294
C492     C      0.185490000000     0.841940000000     0.557310000000    -0.0561135  
C493     C      0.178680000000     0.819440000000     0.171180000000    -0.0303778  
C494     C      0.146140000000     0.788940000000     0.988780000000    -0.0309919  
C495     C      0.121570000000     0.813180000000     0.951920000000    -0.00483652 
C496     C      0.135740000000     0.781090000000     0.950230000000    -0.00492892 
C497     C      0.161770000000     0.822460000000     0.057680000000    -0.0563294  
C498     C      0.126460000000     0.790930000000     0.109310000000    -0.0538104  
C499     C      0.138100000000     0.802540000000     0.046260000000     0.0614986  
C500     C      0.132140000000     0.819990000000     0.990480000000    -0.030903   
C501     C      0.149740000000     0.811090000000     0.120850000000     0.0604531  
C502     C      0.151940000000     0.837980000000     0.169610000000    -0.0413978  
C503     C      0.167370000000     0.826940000000     0.094600000000    -0.0555589  
C504     C      0.151950000000     0.840540000000     0.211260000000     0.0362454  
C505     C      0.179860000000     0.819590000000     0.212520000000    -0.00588643 
C506     C      0.120670000000     0.786730000000     0.072350000000    -0.0545813  
C507     C      0.271480000000     0.870510000000     0.895670000000    -0.0308365  
C508     C      0.402440000000     0.976020000000     0.906260000000    -0.0304078  
C509     C      0.424210000000     0.945340000000     0.930630000000    -0.00445084 
C510     C      0.428360000000     0.989240000000     0.925280000000    -0.00485996 
C511     C      0.342620000000     0.928820000000     0.938340000000    -0.0542164  
C512     C      0.326630000000     0.921480000000     0.865980000000    -0.0533784  
C513     C      0.360770000000     0.938410000000     0.910610000000     0.0618016  
C514     C      0.398980000000     0.935340000000     0.910540000000    -0.0303188  
C515     C      0.308450000000     0.911640000000     0.893760000000     0.0604148  
C516     C      0.266380000000     0.906720000000     0.899390000000    -0.0415884  
C517     C      0.316710000000     0.915470000000     0.930150000000    -0.0558028  
C518     C      0.238590000000     0.892110000000     0.885250000000     0.0367972  
C519     C      0.246180000000     0.854220000000     0.876740000000    -0.00337712 
C520     C      0.352630000000     0.934680000000     0.874220000000    -0.0567712  
C521     C      0.868690000000     0.685710000000     0.761780000000    -0.0332373  
C522     C      0.871160000000     0.675810000000     0.958950000000    -0.0310797  
C523     C      0.819060000000     0.657530000000     0.983050000000    -0.00544192 
C524     C      0.866370000000     0.684410000000     0.995540000000    -0.00411175 
C525     C      0.874190000000     0.692040000000     0.878260000000    -0.0528272  
C526     C      0.852040000000     0.646590000000     0.840480000000    -0.054805   
C527     C      0.857020000000     0.669850000000     0.896350000000     0.060114   
C528     C      0.825940000000     0.650930000000     0.946370000000    -0.030609   
C529     C      0.868470000000     0.668920000000     0.822330000000     0.0626674  
C530     C      0.896950000000     0.668040000000     0.776970000000    -0.0437187  
C531     C      0.880510000000     0.691540000000     0.841990000000    -0.0570739  
C532     C      0.898270000000     0.662490000000     0.736370000000     0.0409637  
C533     C      0.887760000000     0.697270000000     0.730490000000    -0.00331038 
C534     C      0.846710000000     0.646870000000     0.877300000000    -0.0543402  
C535     C      0.793090000000     0.612210000000     0.270190000000    -0.0309314  
C536     C      0.841230000000     0.652640000000     0.450220000000    -0.0306886  
C537     C      0.836390000000     0.613430000000     0.499640000000    -0.00526443 
C538     C      0.839290000000     0.655980000000     0.490790000000    -0.00420109 
C539     C      0.800290000000     0.619480000000     0.387620000000    -0.0541689  
C540     C      0.839590000000     0.625870000000     0.341430000000    -0.0534306  
C541     C      0.822870000000     0.622360000000     0.402440000000     0.0615608  
C542     C      0.837570000000     0.611850000000     0.458230000000    -0.0307206  
C543     C      0.817370000000     0.623950000000     0.326640000000     0.0607436  
C544     C      0.823390000000     0.655260000000     0.282870000000    -0.0421073  
C545     C      0.797610000000     0.620610000000     0.350180000000    -0.0560321  
C546     C      0.830020000000     0.662480000000     0.242820000000     0.0388899  
C547     C      0.796090000000     0.615790000000     0.229020000000    -0.0039041  
C548     C      0.842540000000     0.625440000000     0.378960000000    -0.0564271  
C549     C      0.755370000000     0.619390000000     0.646190000000    -0.0309568  
C550     C      0.635300000000     0.521890000000     0.565380000000    -0.030823   
C551     C      0.608190000000     0.549950000000     0.561730000000    -0.00485521 
C552     C      0.606240000000     0.507510000000     0.562600000000    -0.00476766 
C553     C      0.689620000000     0.567160000000     0.567520000000    -0.0563674  
C554     C      0.702870000000     0.573800000000     0.641050000000    -0.0564614  
C555     C      0.670410000000     0.557960000000     0.594140000000     0.0613635  
C556     C      0.637090000000     0.562160000000     0.564500000000    -0.0306565  
C557     C      0.722090000000     0.583430000000     0.614450000000     0.0612047  
C558     C      0.757700000000     0.581030000000     0.640200000000    -0.0422268  
C559     C      0.715240000000     0.579820000000     0.577730000000    -0.0535301  
C560     C      0.785580000000     0.596440000000     0.654500000000     0.0389093  
C561     C      0.784070000000     0.636990000000     0.643980000000    -0.00118117 
C562     C      0.677270000000     0.561240000000     0.630850000000    -0.0539782  
C563     C      0.972120000000     0.691400000000     0.621310000000    -0.0320337  
C564     C      0.063130000000     0.783750000000     0.749520000000    -0.0307446  
C565     C      0.082520000000     0.754710000000     0.786340000000    -0.00526196 
C566     C      0.075950000000     0.792120000000     0.786610000000    -0.00507752 
C567     C      0.008630000000     0.733860000000     0.718320000000    -0.0529486  
C568     C      0.029890000000     0.742310000000     0.648850000000    -0.0545616  
C569     C      0.035120000000     0.747110000000     0.714350000000     0.0611095  
C570     C      0.069200000000     0.747360000000     0.749440000000    -0.0307166  
C571     C      0.003400000000     0.728730000000     0.652870000000     0.0622392  
C572     C      0.972830000000     0.731900000000     0.614040000000    -0.0438012  
C573     C      0.992830000000     0.724880000000     0.687900000000    -0.0569057  
C574     C      0.957970000000     0.722070000000     0.578380000000     0.0381103  
C575     C      0.956540000000     0.681750000000     0.586260000000    -0.00547231 
C576     C      0.045690000000     0.751640000000     0.679250000000    -0.0559805  
H1       H      0.710070000000     0.983500000000     0.750220000000     0.0402598  
H2       H      0.795030000000     0.086380000000     0.766230000000     0.03464    
H3       H      0.758640000000     0.043360000000     0.672230000000     0.0386911  
H4       H      0.708180000000     0.940320000000     0.856870000000     0.0365672  
H5       H      0.787160000000     0.113250000000     0.727200000000     0.0394176  
H6       H      0.767910000000     0.966280000000     0.776750000000     0.0336044  
H7       H      0.701130000000     0.965520000000     0.813830000000     0.0343676  
H8       H      0.750440000000     0.922160000000     0.796270000000     0.0397134  
H9       H      0.726420000000     0.023960000000     0.720730000000     0.0434061  
H10      H      0.821030000000     0.124860000000     0.727910000000     0.0425093  
H11      H      0.783360000000     0.009020000000     0.800520000000     0.0431749  
H12      H      0.813750000000     0.082070000000     0.731680000000     0.0403828  
H13      H      0.681710000000     0.919490000000     0.829180000000     0.0410676  
H14      H      0.761880000000     0.084390000000     0.665040000000     0.033504   
H15      H      0.737620000000     0.945850000000     0.755930000000     0.0394571  
H16      H      0.699390000000     0.945770000000     0.776280000000     0.037392   
H17      H      0.800510000000     0.048200000000     0.767660000000     0.0406506  
H18      H      0.792510000000     0.056970000000     0.677840000000     0.0461397  
H19      H      0.755430000000     0.943080000000     0.833460000000     0.0385172  
H20      H      0.945280000000     0.378250000000     0.584060000000     0.0407896  
H21      H      0.866120000000     0.290490000000     0.573250000000     0.0346264  
H22      H      0.934460000000     0.288160000000     0.567790000000     0.039414   
H23      H      0.938310000000     0.419550000000     0.466730000000     0.0370727  
H24      H      0.860830000000     0.261480000000     0.619730000000     0.0389588  
H25      H      0.986470000000     0.396060000000     0.515590000000     0.0346881  
H26      H      0.913530000000     0.389620000000     0.513390000000     0.0344011  
H27      H      0.007020000000     0.442760000000     0.506650000000     0.0409028  
H28      H      0.925080000000     0.335800000000     0.610190000000     0.0448075  
H29      H      0.841660000000     0.243650000000     0.582210000000     0.0407244  
H30      H      0.926580000000     0.346500000000     0.476590000000     0.0444373  
H31      H      0.870670000000     0.272550000000     0.538430000000     0.0369364  
H32      H      0.933320000000     0.435830000000     0.503380000000     0.0410277  
H33      H      0.912900000000     0.256110000000     0.610440000000     0.0340339  
H34      H      0.978240000000     0.411730000000     0.549860000000     0.0373595  
H35      H      0.935850000000     0.408090000000     0.548420000000     0.0378093  
H36      H      0.905880000000     0.304200000000     0.502550000000     0.0403057  
H37      H      0.910600000000     0.273740000000     0.533250000000     0.0403984  
H38      H      0.988490000000     0.424470000000     0.468740000000     0.0370134  
H39      H      0.065020000000     0.647370000000     0.386570000000     0.0409749  
H40      H      0.082590000000     0.742550000000     0.386390000000     0.0347351  
H41      H      0.145120000000     0.730520000000     0.395800000000     0.0390721  
H42      H      0.015830000000     0.606730000000     0.501900000000     0.0372555  
H43      H      0.110820000000     0.767960000000     0.339320000000     0.0385042  
H44      H      0.092150000000     0.639910000000     0.464900000000     0.0345331  
H45      H      0.019460000000     0.632870000000     0.450450000000     0.0347383  
H46      H      0.072090000000     0.594380000000     0.479830000000     0.0413302  
H47      H      0.088920000000     0.688340000000     0.356330000000     0.0447506  
H48      H      0.112340000000     0.788330000000     0.375020000000     0.0417919  
H49      H      0.076320000000     0.684550000000     0.489680000000     0.0443381  
H50      H      0.106090000000     0.758310000000     0.421300000000     0.0365219  
H51      H      0.998460000000     0.586760000000     0.464500000000     0.0410025  
H52      H      0.159700000000     0.761270000000     0.349400000000     0.0330904  
H53      H      0.071640000000     0.619860000000     0.429310000000     0.0382546  
H54      H      0.029140000000     0.615850000000     0.420690000000     0.0377738  
H55      H      0.100240000000     0.725380000000     0.459690000000     0.0400231  
H56      H      0.140400000000     0.749640000000     0.428290000000     0.0406429  
H57      H      0.064820000000     0.611900000000     0.511830000000     0.0365342  
H58      H      0.589260000000     0.640960000000     0.917210000000     0.0412602  
H59      H      0.599400000000     0.728130000000     0.893770000000     0.034246   
H60      H      0.669970000000     0.730570000000     0.904800000000     0.0393979  
H61      H      0.553090000000     0.614810000000     0.044860000000     0.0362968  
H62      H      0.625530000000     0.750290000000     0.841570000000     0.0372257  
H63      H      0.621220000000     0.637470000000     0.990750000000     0.0348867  
H64      H      0.551590000000     0.638300000000     0.992390000000     0.0345688  
H65      H      0.599210000000     0.593160000000     0.012820000000     0.0411252  
H66      H      0.609380000000     0.678100000000     0.877770000000     0.044358   
H67      H      0.620200000000     0.770990000000     0.869650000000     0.0425112  
H68      H      0.610530000000     0.688910000000     0.011300000000     0.0443058  
H69      H      0.622770000000     0.750320000000     0.924920000000     0.0381755  
H70      H      0.528420000000     0.593910000000     0.014330000000     0.0411979  
H71      H      0.673640000000     0.754180000000     0.850310000000     0.0308204  
H72      H      0.596220000000     0.616410000000     0.960480000000     0.0396924  
H73      H      0.554280000000     0.617020000000     0.961370000000     0.0390473  
H74      H      0.629950000000     0.726000000000     0.971920000000     0.0404044  
H75      H      0.663400000000     0.750800000000     0.932630000000     0.0416578  
H76      H      0.596680000000     0.614380000000     0.043720000000     0.0354139  
H77      H      0.269140000000     0.980290000000     0.205060000000     0.0411188  
H78      H      0.279380000000     0.067290000000     0.202860000000     0.0345685  
H79      H      0.351210000000     0.072100000000     0.209540000000     0.03947    
H80      H      0.224240000000     0.949220000000     0.328700000000     0.0380388  
H81      H      0.301130000000     0.092620000000     0.152120000000     0.0401791  
H82      H      0.292970000000     0.965150000000     0.274010000000     0.0348916  
H83      H      0.229150000000     0.975870000000     0.277790000000     0.0346823  
H84      H      0.264730000000     0.919440000000     0.290020000000     0.0413464  
H85      H      0.291640000000     0.020750000000     0.173150000000     0.0452477  
H86      H      0.301040000000     0.113200000000     0.186270000000     0.0397709  
H87      H      0.286920000000     0.019120000000     0.307590000000     0.0446431  
H88      H      0.302930000000     0.088230000000     0.234760000000     0.0362913  
H89      H      0.201090000000     0.930730000000     0.294920000000     0.0416877  
H90      H      0.361160000000     0.101340000000     0.163240000000     0.0344202  
H91      H      0.266720000000     0.948010000000     0.243270000000     0.0373659  
H92      H      0.229860000000     0.954100000000     0.245640000000     0.0382749  
H93      H      0.308560000000     0.059450000000     0.275880000000     0.0400056  
H94      H      0.342100000000     0.088140000000     0.241520000000     0.0395635  
H95      H      0.268770000000     0.941050000000     0.325510000000     0.0378206  
H96      H      0.422620000000     0.311280000000     0.967230000000     0.0444496  
H97      H      0.497040000000     0.395150000000     0.992740000000     0.0348739  
H98      H      0.427440000000     0.395000000000     0.998910000000     0.0389974  
H99      H      0.418700000000     0.248110000000     0.024390000000     0.0372896  
H100     H      0.514360000000     0.436990000000     0.007250000000     0.0412866  
H101     H      0.376180000000     0.285570000000     0.036370000000     0.0348326  
H102     H      0.448930000000     0.291540000000     0.037510000000     0.0346975  
H103     H      0.357570000000     0.244130000000     0.068690000000     0.0411173  
H104     H      0.443690000000     0.356270000000     0.953180000000     0.0401433  
H105     H      0.514690000000     0.438670000000     0.959010000000     0.0367267  
H106     H      0.430240000000     0.328270000000     0.081570000000     0.0410691  
H107     H      0.481370000000     0.397190000000     0.952550000000     0.0348424  
H108     H      0.430950000000     0.250200000000     0.069350000000     0.041565   
H109     H      0.451650000000     0.437260000000     0.007450000000     0.0356213  
H110     H      0.391240000000     0.287150000000     0.079270000000     0.0379346  
H111     H      0.433630000000     0.290500000000     0.079950000000     0.0380143  
H112     H      0.451530000000     0.373330000000     0.067550000000     0.0455093  
H113     H      0.441130000000     0.394360000000     0.956240000000     0.0394526  
H114     H      0.369040000000     0.243920000000     0.023880000000     0.0378434  
H115     H      0.669470000000     0.778860000000     0.642470000000     0.0407155  
H116     H      0.638640000000     0.774950000000     0.510750000000     0.0345805  
H117     H      0.718830000000     0.808710000000     0.519460000000     0.0404436  
H118     H      0.661480000000     0.847430000000     0.711450000000     0.0383491  
H119     H      0.654130000000     0.756210000000     0.466000000000     0.0367196  
H120     H      0.718720000000     0.833010000000     0.667700000000     0.035044   
H121     H      0.641450000000     0.814670000000     0.666780000000     0.0344667  
H122     H      0.719640000000     0.836720000000     0.735540000000     0.0417312  
H123     H      0.669250000000     0.764710000000     0.580100000000     0.0442718  
H124     H      0.640780000000     0.773040000000     0.443740000000     0.041709   
H125     H      0.686080000000     0.851360000000     0.602010000000     0.0447499  
H126     H      0.657760000000     0.805770000000     0.491200000000     0.0392665  
H127     H      0.642300000000     0.818440000000     0.735100000000     0.0396926  
H128     H      0.701300000000     0.775850000000     0.472580000000     0.0292874  
H129     H      0.695150000000     0.805160000000     0.690730000000     0.0375495  
H130     H      0.650560000000     0.794520000000     0.689980000000     0.0373423  
H131     H      0.684930000000     0.836900000000     0.539590000000     0.0419786  
H132     H      0.706370000000     0.826110000000     0.495860000000     0.0458436  
H133     H      0.716180000000     0.860350000000     0.711920000000     0.0372954  
H134     H      0.698650000000     0.901960000000     0.073830000000     0.0443394  
H135     H      0.729500000000     0.880800000000     0.184580000000     0.035074   
H136     H      0.649840000000     0.835710000000     0.173570000000     0.0389555  
H137     H      0.727810000000     0.895760000000     0.965390000000     0.0370273  
H138     H      0.723180000000     0.858330000000     0.237420000000     0.0407092  
H139     H      0.656780000000     0.857890000000     0.020890000000     0.0343772  
H140     H      0.734390000000     0.877180000000     0.019130000000     0.0349387  
H141     H      0.653840000000     0.851310000000     0.953800000000     0.040752   
H142     H      0.695440000000     0.895970000000     0.139740000000     0.0402166  
H143     H      0.720380000000     0.884060000000     0.253920000000     0.0387837  
H144     H      0.689930000000     0.828370000000     0.060140000000     0.0408283  
H145     H      0.708580000000     0.892290000000     0.197480000000     0.0348011  
H146     H      0.731900000000     0.869970000000     0.951810000000     0.0419132  
H147     H      0.652710000000     0.818810000000     0.227890000000     0.0366749  
H148     H      0.665110000000     0.834810000000     0.006640000000     0.0381662  
H149     H      0.710370000000     0.846010000000     0.005590000000     0.0378022  
H150     H      0.688020000000     0.822870000000     0.126220000000     0.0451338  
H151     H      0.664350000000     0.867510000000     0.189220000000     0.0402005  
H152     H      0.675300000000     0.883180000000     0.967110000000     0.0373095  
H153     H      0.761110000000     0.702740000000     0.222670000000     0.0419352  
H154     H      0.761730000000     0.780010000000     0.274240000000     0.0348071  
H155     H      0.687610000000     0.724510000000     0.243210000000     0.0395177  
H156     H      0.809360000000     0.732840000000     0.102830000000     0.0362673  
H157     H      0.733830000000     0.772490000000     0.325630000000     0.0383833  
H158     H      0.735950000000     0.684090000000     0.138950000000     0.034878   
H159     H      0.807550000000     0.747820000000     0.163400000000     0.0351582  
H160     H      0.757430000000     0.663330000000     0.108460000000     0.0413681  
H161     H      0.741320000000     0.716700000000     0.268290000000     0.0447278  
H162     H      0.745120000000     0.803290000000     0.307540000000     0.0434151  
H163     H      0.754080000000     0.750260000000     0.142840000000     0.0444389  
H164     H      0.743150000000     0.788600000000     0.245520000000     0.0385958  
H165     H      0.830110000000     0.728330000000     0.132870000000     0.0422136  
H166     H      0.682550000000     0.736730000000     0.303430000000     0.031835   
H167     H      0.757090000000     0.679880000000     0.168940000000     0.0397802  
H168     H      0.800030000000     0.718110000000     0.183560000000     0.0409314  
H169     H      0.735060000000     0.764790000000     0.188550000000     0.0407333  
H170     H      0.700730000000     0.755960000000     0.225740000000     0.0417879  
H171     H      0.764310000000     0.692470000000     0.087570000000     0.0357749  
H172     H      0.612200000000     0.931630000000     0.500020000000     0.0407279  
H173     H      0.607480000000     0.861420000000     0.420980000000     0.0345416  
H174     H      0.680640000000     0.925840000000     0.416680000000     0.039387   
H175     H      0.539850000000     0.936240000000     0.436320000000     0.0396147  
H176     H      0.637500000000     0.847570000000     0.434520000000     0.0360009  
H177     H      0.622820000000     0.983860000000     0.454020000000     0.034714   
H178     H      0.557420000000     0.911570000000     0.456150000000     0.0345974  
H179     H      0.595950000000     0.001300000000     0.482400000000     0.0391843  
H180     H      0.635040000000     0.908640000000     0.488060000000     0.0442733  
H181     H      0.623170000000     0.835890000000     0.391190000000     0.0426789  
H182     H      0.603200000000     0.937330000000     0.385030000000     0.0450991  
H183     H      0.621990000000     0.873890000000     0.377520000000     0.0388698  
H184     H      0.532490000000     0.931020000000     0.483570000000     0.039304   
H185     H      0.689290000000     0.892200000000     0.427270000000     0.0319943  
H186     H      0.607100000000     0.969820000000     0.496120000000     0.036083   
H187     H      0.570160000000     0.929290000000     0.497280000000     0.0359784  
H188     H      0.626060000000     0.914660000000     0.372970000000     0.040865   
H189     H      0.663510000000     0.912210000000     0.375270000000     0.041862   
H190     H      0.591240000000     0.993330000000     0.435360000000     0.0398675  
H191     H      0.999520000000     0.482090000000     0.704210000000     0.0407037  
H192     H      0.032750000000     0.534180000000     0.831260000000     0.0348653  
H193     H      0.956050000000     0.477240000000     0.819700000000     0.0388933  
H194     H      0.035040000000     0.553350000000     0.616710000000     0.036635   
H195     H      0.030240000000     0.510420000000     0.881910000000     0.0393915  
H196     H      0.962090000000     0.509250000000     0.665830000000     0.0344191  
H197     H      0.040730000000     0.532500000000     0.668360000000     0.0346823  
H198     H      0.962110000000     0.506570000000     0.597950000000     0.0400675  
H199     H      0.997820000000     0.474640000000     0.769770000000     0.0449311  
H200     H      0.023960000000     0.533550000000     0.900450000000     0.0393473  
H201     H      0.997640000000     0.550380000000     0.723390000000     0.0443327  
H202     H      0.007220000000     0.538980000000     0.845990000000     0.0351606  
H203     H      0.041150000000     0.529380000000     0.600470000000     0.0412857  
H204     H      0.964810000000     0.462530000000     0.872760000000     0.0357589  
H205     H      0.972730000000     0.488360000000     0.649490000000     0.0380601  
H206     H      0.018420000000     0.501860000000     0.650700000000     0.0373114  
H207     H      0.994120000000     0.542030000000     0.788710000000     0.0403576  
H208     H      0.964530000000     0.507670000000     0.837180000000     0.0407955  
H209     H      0.981280000000     0.537850000000     0.615380000000     0.0380322  
H210     H      0.004380000000     0.519510000000     0.242610000000     0.0441642  
H211     H      0.959120000000     0.435450000000     0.163650000000     0.0352319  
H212     H      0.039820000000     0.476920000000     0.166500000000     0.0402311  
H213     H      0.982940000000     0.522270000000     0.350880000000     0.03736    
H214     H      0.976090000000     0.416340000000     0.121910000000     0.036878   
H215     H      0.040840000000     0.508260000000     0.313730000000     0.0347242  
H216     H      0.962730000000     0.487020000000     0.309480000000     0.0344669  
H217     H      0.041530000000     0.515390000000     0.380710000000     0.041288   
H218     H      0.002580000000     0.501290000000     0.182650000000     0.0416384  
H219     H      0.959450000000     0.428970000000     0.097000000000     0.0420974  
H220     H      0.994100000000     0.451850000000     0.293520000000     0.0408015  
H221     H      0.974770000000     0.464830000000     0.139260000000     0.0405643  
H222     H      0.962810000000     0.494330000000     0.376390000000     0.0403909  
H223     H      0.023650000000     0.440590000000     0.125490000000     0.0289829  
H224     H      0.018080000000     0.480970000000     0.338710000000     0.0378287  
H225     H      0.972380000000     0.468530000000     0.336080000000     0.0381262  
H226     H      0.993570000000     0.434150000000     0.233640000000     0.0443387  
H227     H      0.023770000000     0.489790000000     0.140190000000     0.0462238  
H228     H      0.035630000000     0.536370000000     0.354020000000     0.036288   
H229     H      0.897630000000     0.579840000000     0.034020000000     0.0408975  
H230     H      0.971780000000     0.563380000000     0.065670000000     0.0346168  
H231     H      0.900790000000     0.497330000000     0.052150000000     0.0394569  
H232     H      0.889090000000     0.620500000000     0.150720000000     0.0379764  
H233     H      0.981980000000     0.542580000000     0.020880000000     0.040305   
H234     H      0.848210000000     0.552790000000     0.090620000000     0.0347431  
H235     H      0.919490000000     0.617660000000     0.111520000000     0.0345887  
H236     H      0.826640000000     0.578590000000     0.093830000000     0.0411353  
H237     H      0.919360000000     0.557350000000     0.013400000000     0.0453025  
H238     H      0.993170000000     0.536580000000     0.062370000000     0.0390596  
H239     H      0.901550000000     0.558900000000     0.144480000000     0.0445063  
H240     H      0.961000000000     0.537930000000     0.097640000000     0.0355976  
H241     H      0.898480000000     0.643770000000     0.115680000000     0.0411366  
H242     H      0.923820000000     0.485160000000     0.015780000000     0.0354267  
H243     H      0.860580000000     0.578600000000     0.058930000000     0.0375574  
H244     H      0.902020000000     0.616360000000     0.071160000000     0.037721   
H245     H      0.923770000000     0.537010000000     0.124140000000     0.0400222  
H246     H      0.919580000000     0.502270000000     0.092070000000     0.0395703  
H247     H      0.840140000000     0.576260000000     0.135960000000     0.0370978  
H248     H      0.352180000000     0.182770000000     0.842860000000     0.040814   
H249     H      0.312850000000     0.125760000000     0.953930000000     0.0349589  
H250     H      0.392180000000     0.169130000000     0.964660000000     0.0423869  
H251     H      0.334300000000     0.122200000000     0.734950000000     0.0382853  
H252     H      0.321850000000     0.147900000000     0.008980000000     0.0433716  
H253     H      0.395410000000     0.177310000000     0.798840000000     0.0347832  
H254     H      0.316130000000     0.126450000000     0.790980000000     0.0346976  
H255     H      0.396400000000     0.189550000000     0.733620000000     0.0413612  
H256     H      0.351740000000     0.181640000000     0.909450000000     0.0453736  
H257     H      0.314390000000     0.117030000000     0.022740000000     0.0348525  
H258     H      0.354660000000     0.113840000000     0.840320000000     0.0445963  
H259     H      0.329080000000     0.109030000000     0.966240000000     0.0389923  
H260     H      0.316820000000     0.138080000000     0.725430000000     0.0403291  
H261     H      0.393140000000     0.155420000000     0.021180000000     0.0356264  
H262     H      0.374170000000     0.189060000000     0.788290000000     0.0373733  
H263     H      0.328200000000     0.159540000000     0.783880000000     0.0378603  
H264     H      0.352870000000     0.112060000000     0.906940000000     0.0418246  
H265     H      0.383190000000     0.138090000000     0.951570000000     0.038595   
H266     H      0.389230000000     0.157790000000     0.740270000000     0.0370271  
H267     H      0.377840000000     0.249720000000     0.341120000000     0.0442308  
H268     H      0.407340000000     0.226500000000     0.450420000000     0.0346391  
H269     H      0.328070000000     0.179500000000     0.437480000000     0.0389256  
H270     H      0.408260000000     0.246010000000     0.231950000000     0.0358169  
H271     H      0.398040000000     0.200100000000     0.501190000000     0.0382636  
H272     H      0.337900000000     0.208740000000     0.284830000000     0.0345448  
H273     H      0.415340000000     0.227090000000     0.285430000000     0.0350371  
H274     H      0.335950000000     0.203610000000     0.217740000000     0.0413545  
H275     H      0.373360000000     0.241780000000     0.406540000000     0.0402853  
H276     H      0.400100000000     0.228190000000     0.518400000000     0.040485   
H277     H      0.369990000000     0.176820000000     0.323330000000     0.0414285  
H278     H      0.385580000000     0.236960000000     0.463760000000     0.0357236  
H279     H      0.414360000000     0.221510000000     0.218050000000     0.0418415  
H280     H      0.333400000000     0.163200000000     0.492210000000     0.0344938  
H281     H      0.345480000000     0.185100000000     0.270640000000     0.0396219  
H282     H      0.391670000000     0.196020000000     0.270870000000     0.0396551  
H283     H      0.367050000000     0.169470000000     0.389000000000     0.0445981  
H284     H      0.341310000000     0.211120000000     0.453720000000     0.0409329  
H285     H      0.359090000000     0.234780000000     0.232040000000     0.0364121  
H286     H      0.407140000000     0.101200000000     0.499610000000     0.0409578  
H287     H      0.481540000000     0.086240000000     0.485880000000     0.0348122  
H288     H      0.412120000000     0.017220000000     0.489150000000     0.0397772  
H289     H      0.418520000000     0.137620000000     0.627740000000     0.0370159  
H290     H      0.479680000000     0.059880000000     0.434920000000     0.0361318  
H291     H      0.366670000000     0.073570000000     0.568030000000     0.0349858  
H292     H      0.441960000000     0.134990000000     0.576360000000     0.0345797  
H293     H      0.349260000000     0.101120000000     0.587770000000     0.0416196  
H294     H      0.424150000000     0.079530000000     0.463070000000     0.0443346  
H295     H      0.504860000000     0.065440000000     0.465570000000     0.0432248  
H296     H      0.425240000000     0.074780000000     0.597400000000     0.0445259  
H297     H      0.478460000000     0.062770000000     0.518210000000     0.0405968  
H298     H      0.425450000000     0.162890000000     0.596910000000     0.0410241  
H299     H      0.437510000000     0.017200000000     0.437440000000     0.0297081  
H300     H      0.376210000000     0.100640000000     0.539350000000     0.0381134  
H301     H      0.420330000000     0.136640000000     0.544330000000     0.0382633  
H302     H      0.442900000000     0.053720000000     0.560930000000     0.0415352  
H303     H      0.436970000000     0.021780000000     0.520550000000     0.0435045  
H304     H      0.367780000000     0.096620000000     0.621830000000     0.0370502  
H305     H      0.085190000000     0.398250000000     0.981410000000     0.0449723  
H306     H      0.151720000000     0.412880000000     0.890000000000     0.0345746  
H307     H      0.093570000000     0.336940000000     0.895190000000     0.0396653  
H308     H      0.066970000000     0.454150000000     0.988100000000     0.0400432  
H309     H      0.164710000000     0.395060000000     0.844340000000     0.0409201  
H310     H      0.023790000000     0.381890000000     0.934400000000     0.0351111  
H311     H      0.093130000000     0.450750000000     0.942640000000     0.0345992  
H312     H      0.999670000000     0.405870000000     0.940810000000     0.0407976  
H313     H      0.112000000000     0.381810000000     0.959020000000     0.0402492  
H314     H      0.183990000000     0.398030000000     0.882710000000     0.0384714  
H315     H      0.066520000000     0.406860000000     0.871450000000     0.0409527  
H316     H      0.151740000000     0.392410000000     0.924960000000     0.0364492  
H317     H      0.068490000000     0.473560000000     0.950790000000     0.0401903  
H318     H      0.119380000000     0.329410000000     0.857950000000     0.0353254  
H319     H      0.031660000000     0.406510000000     0.901690000000     0.0364642  
H320     H      0.070930000000     0.445760000000     0.906690000000     0.0371497  
H321     H      0.092700000000     0.389490000000     0.848870000000     0.0453388  
H322     H      0.116310000000     0.350850000000     0.930970000000     0.0394337  
H323     H      0.014830000000     0.403280000000     0.980930000000     0.0394313  
H324     H      0.297930000000     0.283880000000     0.621820000000     0.0446372  
H325     H      0.297400000000     0.341460000000     0.716790000000     0.0353279  
H326     H      0.228910000000     0.271780000000     0.722120000000     0.0419921  
H327     H      0.355250000000     0.260110000000     0.617770000000     0.0381346  
H328     H      0.277910000000     0.349730000000     0.764820000000     0.0390139  
H329     H      0.276850000000     0.223250000000     0.649570000000     0.0349861  
H330     H      0.351560000000     0.283780000000     0.667210000000     0.0348492  
H331     H      0.293970000000     0.194290000000     0.638780000000     0.0418696  
H332     H      0.276690000000     0.305160000000     0.648630000000     0.0408791  
H333     H      0.266170000000     0.359990000000     0.727890000000     0.0374516  
H334     H      0.304070000000     0.257620000000     0.727820000000     0.0410131  
H335     H      0.272320000000     0.335370000000     0.685080000000     0.036744   
H336     H      0.369170000000     0.254750000000     0.657310000000     0.0407754  
H337     H      0.205910000000     0.289090000000     0.740710000000     0.0362813  
H338     H      0.295380000000     0.221900000000     0.686920000000     0.0379369  
H339     H      0.338670000000     0.257070000000     0.697290000000     0.0373292  
H340     H      0.283070000000     0.279130000000     0.754670000000     0.0466489  
H341     H      0.235020000000     0.288900000000     0.680740000000     0.0393815  
H342     H      0.303280000000     0.218450000000     0.605170000000     0.0386295  
H343     H      0.475390000000     0.483140000000     0.797040000000     0.0412614  
H344     H      0.482260000000     0.518790000000     0.654830000000     0.0346456  
H345     H      0.507990000000     0.469370000000     0.688790000000     0.0391868  
H346     H      0.515080000000     0.557410000000     0.877680000000     0.0355314  
H347     H      0.466100000000     0.483510000000     0.612790000000     0.0357675  
H348     H      0.545740000000     0.519580000000     0.818230000000     0.0342676  
H349     H      0.483420000000     0.532020000000     0.832770000000     0.0347308  
H350     H      0.552330000000     0.520750000000     0.884830000000     0.0409668  
H351     H      0.466030000000     0.469590000000     0.733790000000     0.0442613  
H352     H      0.488240000000     0.511870000000     0.590210000000     0.0412653  
H353     H      0.540210000000     0.552870000000     0.762770000000     0.0439411  
H354     H      0.514700000000     0.527060000000     0.644810000000     0.039217   
H355     H      0.488550000000     0.532060000000     0.900440000000     0.0415537  
H356     H      0.483090000000     0.452160000000     0.633450000000     0.0309293  
H357     H      0.517740000000     0.496340000000     0.841790000000     0.0395844  
H358     H      0.481190000000     0.503550000000     0.850400000000     0.0385921  
H359     H      0.532080000000     0.538540000000     0.699950000000     0.0407543  
H360     H      0.530080000000     0.498310000000     0.666380000000     0.043342   
H361     H      0.556700000000     0.549870000000     0.866920000000     0.0362985  
H362     H      0.512910000000     0.518590000000     0.232700000000     0.0401641  
H363     H      0.516870000000     0.465820000000     0.358910000000     0.0425254  
H364     H      0.572140000000     0.538300000000     0.330570000000     0.039402   
H365     H      0.494410000000     0.472430000000     0.123290000000     0.0372101  
H366     H      0.543580000000     0.460520000000     0.401080000000     0.0411084  
H367     H      0.569370000000     0.514320000000     0.172510000000     0.033295   
H368     H      0.489840000000     0.486240000000     0.182030000000     0.0343628  
H369     H      0.567560000000     0.522540000000     0.106980000000     0.0393754  
H370     H      0.518730000000     0.517950000000     0.297980000000     0.0451738  
H371     H      0.571980000000     0.480910000000     0.376440000000     0.0333474  
H372     H      0.554050000000     0.478640000000     0.216690000000     0.0427521  
H373     H      0.539240000000     0.462120000000     0.332080000000     0.032486   
H374     H      0.488800000000     0.498110000000     0.116410000000     0.0412527  
H375     H      0.557190000000     0.534090000000     0.391240000000     0.0380541  
H376     H      0.556260000000     0.534510000000     0.164590000000     0.0391573  
H377     H      0.511090000000     0.518880000000     0.170990000000     0.0370672  
H378     H      0.562420000000     0.480910000000     0.281860000000     0.040689   
H379     H      0.584180000000     0.516970000000     0.336430000000     0.0416926  
H380     H      0.549830000000     0.489760000000     0.118510000000     0.0388474  
H381     H      0.831160000000     0.187410000000     0.934050000000     0.0410537  
H382     H      0.852590000000     0.232360000000     0.801600000000     0.0353662  
H383     H      0.845780000000     0.160630000000     0.814690000000     0.0394654  
H384     H      0.902360000000     0.242070000000     0.018500000000     0.0366563  
H385     H      0.823700000000     0.205060000000     0.754720000000     0.0403215  
H386     H      0.883490000000     0.178310000000     0.956380000000     0.0349864  
H387     H      0.874300000000     0.241890000000     0.971090000000     0.0351539  
H388     H      0.882810000000     0.172070000000     0.023150000000     0.0415381  
H389     H      0.818060000000     0.181890000000     0.870260000000     0.0444749  
H390     H      0.852840000000     0.227990000000     0.733390000000     0.0325359  
H391     H      0.909920000000     0.228140000000     0.901370000000     0.0447298  
H392     H      0.878090000000     0.227870000000     0.785230000000     0.0393497  
H393     H      0.872880000000     0.236240000000     0.038450000000     0.0418403  
H394     H      0.818620000000     0.159840000000     0.765290000000     0.0278974  
H395     H      0.854380000000     0.173590000000     0.976860000000     0.0394681  
H396     H      0.848840000000     0.211710000000     0.985710000000     0.0388606  
H397     H      0.896780000000     0.221820000000     0.837430000000     0.0418019  
H398     H      0.873860000000     0.185060000000     0.792520000000     0.0462415  
H399     H      0.908490000000     0.201970000000     0.008700000000     0.0365568  
H400     H      0.852440000000     0.182460000000     0.347740000000     0.0412842  
H401     H      0.787960000000     0.149660000000     0.461870000000     0.0351047  
H402     H      0.849860000000     0.136340000000     0.460660000000     0.0390767  
H403     H      0.789170000000     0.150990000000     0.247410000000     0.0362276  
H404     H      0.805310000000     0.168280000000     0.516920000000     0.0410157  
H405     H      0.831840000000     0.122400000000     0.298930000000     0.0344794  
H406     H      0.803470000000     0.173030000000     0.304630000000     0.0350085  
H407     H      0.840500000000     0.131100000000     0.232850000000     0.0408963  
H408     H      0.854010000000     0.182680000000     0.414190000000     0.0454473  
H409     H      0.782820000000     0.137110000000     0.530560000000     0.0390061  
H410     H      0.785150000000     0.109190000000     0.349990000000     0.0442979  
H411     H      0.784000000000     0.119670000000     0.474740000000     0.0352242  
H412     H      0.812660000000     0.183040000000     0.238500000000     0.041784   
H413     H      0.858270000000     0.154250000000     0.517430000000     0.0368753  
H414     H      0.853060000000     0.155260000000     0.289580000000     0.0391277  
H415     H      0.836430000000     0.185060000000     0.292760000000     0.0387148  
H416     H      0.787830000000     0.108590000000     0.416250000000     0.0404371  
H417     H      0.818140000000     0.111860000000     0.470490000000     0.0404233  
H418     H      0.807320000000     0.117050000000     0.244130000000     0.0372115  
H419     H      0.130450000000     0.331600000000     0.537400000000     0.0446338  
H420     H      0.187360000000     0.380440000000     0.644910000000     0.0345548  
H421     H      0.163540000000     0.303160000000     0.640630000000     0.0396005  
H422     H      0.151460000000     0.358000000000     0.428080000000     0.037115   
H423     H      0.207330000000     0.373720000000     0.696170000000     0.0434296  
H424     H      0.158560000000     0.302150000000     0.485220000000     0.0350601  
H425     H      0.176130000000     0.378170000000     0.482040000000     0.0345542  
H426     H      0.166040000000     0.302870000000     0.418460000000     0.0417718  
H427     H      0.135780000000     0.333050000000     0.603530000000     0.0408728  
H428     H      0.181790000000     0.377740000000     0.712690000000     0.0375114  
H429     H      0.209040000000     0.351860000000     0.523690000000     0.0410395  
H430     H      0.155880000000     0.357340000000     0.659600000000     0.0372467  
H431     H      0.183710000000     0.379710000000     0.415130000000     0.0408539  
H432     H      0.188780000000     0.316240000000     0.694670000000     0.0428911  
H433     H      0.190090000000     0.325990000000     0.471670000000     0.0384928  
H434     H      0.200410000000     0.370680000000     0.469890000000     0.038232   
H435     H      0.214220000000     0.352720000000     0.589830000000     0.0451531  
H436     H      0.142170000000     0.313730000000     0.655470000000     0.041131   
H437     H      0.139860000000     0.307350000000     0.430200000000     0.0367457  
H438     H      0.187800000000     0.340520000000     0.087520000000     0.0408608  
H439     H      0.236570000000     0.380100000000     0.960150000000     0.0414919  
H440     H      0.217760000000     0.306000000000     0.984610000000     0.0397307  
H441     H      0.245890000000     0.383770000000     0.193340000000     0.0373897  
H442     H      0.258160000000     0.381460000000     0.906770000000     0.0416675  
H443     H      0.216600000000     0.313010000000     0.139400000000     0.0348079  
H444     H      0.231680000000     0.388150000000     0.134100000000     0.0345994  
H445     H      0.202810000000     0.309990000000     0.204070000000     0.0412664  
H446     H      0.189040000000     0.338100000000     0.021120000000     0.046123   
H447     H      0.270020000000     0.362310000000     0.925120000000     0.0331226  
H448     H      0.266120000000     0.358370000000     0.093190000000     0.0445092  
H449     H      0.263780000000     0.379360000000     0.977630000000     0.0325871  
H450     H      0.217340000000     0.385380000000     0.198760000000     0.0410454  
H451     H      0.201290000000     0.306800000000     0.927060000000     0.038891   
H452     H      0.190930000000     0.319510000000     0.145590000000     0.0379587  
H453     H      0.199640000000     0.363120000000     0.142490000000     0.0372791  
H454     H      0.267080000000     0.355130000000     0.026860000000     0.0406391  
H455     H      0.250460000000     0.327220000000     0.972430000000     0.0408141  
H456     H      0.235910000000     0.332000000000     0.196680000000     0.0385996  
H457     H      0.024690000000     0.270340000000     0.297390000000     0.0446555  
H458     H      0.972530000000     0.214850000000     0.194160000000     0.034573   
H459     H      0.963690000000     0.278150000000     0.209700000000     0.0393486  
H460     H      0.097280000000     0.281590000000     0.308940000000     0.0381592  
H461     H      0.943340000000     0.210570000000     0.147820000000     0.0396763  
H462     H      0.075770000000     0.331990000000     0.260920000000     0.0346942  
H463     H      0.068400000000     0.259680000000     0.259980000000     0.0344971  
H464     H      0.123080000000     0.351370000000     0.271790000000     0.0407563  
H465     H      0.982250000000     0.249840000000     0.270190000000     0.0401752  
H466     H      0.925670000000     0.188330000000     0.182590000000     0.0403483  
H467     H      0.058310000000     0.294300000000     0.191460000000     0.0408783  
H468     H      0.952540000000     0.215250000000     0.229990000000     0.0367064  
H469     H      0.115130000000     0.278780000000     0.272240000000     0.0406914  
H470     H      0.932110000000     0.257690000000     0.165680000000     0.0333246  
H471     H      0.092420000000     0.324350000000     0.227260000000     0.0367798  
H472     H      0.088310000000     0.282840000000     0.226930000000     0.0375375  
H473     H      0.015660000000     0.274560000000     0.164150000000     0.0449539  
H474     H      0.950290000000     0.252490000000     0.241210000000     0.0399248  
H475     H      0.103250000000     0.333420000000     0.308900000000     0.0377467  
H476     H      0.372050000000     0.422700000000     0.462010000000     0.0407481  
H477     H      0.315540000000     0.430070000000     0.362120000000     0.0344198  
H478     H      0.308980000000     0.358430000000     0.367690000000     0.0390772  
H479     H      0.461310000000     0.485070000000     0.415240000000     0.0388375  
H480     H      0.271280000000     0.403950000000     0.369720000000     0.0392851  
H481     H      0.412430000000     0.405120000000     0.429680000000     0.0346532  
H482     H      0.418370000000     0.476630000000     0.421480000000     0.0345129  
H483     H      0.452220000000     0.423920000000     0.468080000000     0.0409288  
H484     H      0.327960000000     0.402750000000     0.439790000000     0.0445728  
H485     H      0.275940000000     0.411540000000     0.322560000000     0.0396216  
H486     H      0.399140000000     0.432220000000     0.351840000000     0.0447376  
H487     H      0.316540000000     0.414270000000     0.321570000000     0.0362202  
H488     H      0.458260000000     0.495300000000     0.459540000000     0.0403453  
H489     H      0.265700000000     0.344940000000     0.366870000000     0.0338222  
H490     H      0.411030000000     0.421020000000     0.469970000000     0.0370635  
H491     H      0.414470000000     0.462030000000     0.465250000000     0.0369586  
H492     H      0.355310000000     0.412680000000     0.329590000000     0.0402078  
H493     H      0.315930000000     0.375280000000     0.325670000000     0.0400713  
H494     H      0.457040000000     0.433460000000     0.421460000000     0.0376046  
H495     H      0.575320000000     0.008540000000     0.748490000000     0.0449372  
H496     H      0.497350000000     0.962010000000     0.649280000000     0.0346509  
H497     H      0.547730000000     0.040320000000     0.647370000000     0.0391128  
H498     H      0.573270000000     0.039890000000     0.856740000000     0.0362862  
H499     H      0.509750000000     0.965500000000     0.588820000000     0.0391059  
H500     H      0.532840000000     0.969290000000     0.807860000000     0.0346282  
H501     H      0.554580000000     0.046490000000     0.802460000000     0.0350245  
H502     H      0.527880000000     0.969430000000     0.874970000000     0.0410935  
H503     H      0.566780000000     0.004610000000     0.682800000000     0.045514   
H504     H      0.481240000000     0.967030000000     0.585950000000     0.0397388  
H505     H      0.501590000000     0.000780000000     0.767900000000     0.0406375  
H506     H      0.485680000000     0.983630000000     0.644490000000     0.0347908  
H507     H      0.549480000000     0.047660000000     0.869640000000     0.0416828  
H508     H      0.552220000000     0.032060000000     0.587170000000     0.0356658  
H509     H      0.509840000000     0.978330000000     0.820950000000     0.0390471  
H510     H      0.522840000000     0.024540000000     0.817910000000     0.0389519  
H511     H      0.493740000000     0.998390000000     0.702810000000     0.039744   
H512     H      0.513870000000     0.027280000000     0.645540000000     0.0404968  
H513     H      0.559770000000     0.990800000000     0.859940000000     0.0367492  
H514     H      0.533070000000     0.991640000000     0.225660000000     0.0443998  
H515     H      0.498290000000     0.037230000000     0.139420000000     0.0353039  
H516     H      0.459170000000     0.957550000000     0.139390000000     0.040289   
H517     H      0.551820000000     0.013830000000     0.334850000000     0.0373025  
H518     H      0.464920000000     0.021430000000     0.092960000000     0.0367402  
H519     H      0.482120000000     0.956230000000     0.293230000000     0.035012   
H520     H      0.538540000000     0.033330000000     0.289080000000     0.0346172  
H521     H      0.485450000000     0.956580000000     0.360930000000     0.0417854  
H522     H      0.519750000000     0.993510000000     0.163370000000     0.0418823  
H523     H      0.495860000000     0.038270000000     0.072230000000     0.0423921  
H524     H      0.472380000000     0.001980000000     0.266970000000     0.0410564  
H525     H      0.513790000000     0.022020000000     0.117960000000     0.0408284  
H526     H      0.542810000000     0.034410000000     0.356620000000     0.0407669  
H527     H      0.441660000000     0.974560000000     0.094570000000     0.0290189  
H528     H      0.475840000000     0.978940000000     0.314850000000     0.0385365  
H529     H      0.508990000000     0.024240000000     0.312290000000     0.0385559  
H530     H      0.458310000000     0.002590000000     0.204740000000     0.0445391  
H531     H      0.489870000000     0.973610000000     0.117190000000     0.0460585  
H532     H      0.513980000000     0.962490000000     0.337930000000     0.0364229  
H533     H      0.689360000000     0.082340000000     0.123020000000     0.0447747  
H534     H      0.621940000000     0.019010000000     0.039190000000     0.0347874  
H535     H      0.627400000000     0.090250000000     0.040170000000     0.0391462  
H536     H      0.768980000000     0.102690000000     0.116300000000     0.0391858  
H537     H      0.589420000000     0.011060000000     0.998090000000     0.0398254  
H538     H      0.726970000000     0.140650000000     0.083280000000     0.0345867  
H539     H      0.738500000000     0.078540000000     0.071060000000     0.0346345  
H540     H      0.774740000000     0.169390000000     0.087780000000     0.0397234  
H541     H      0.644770000000     0.059880000000     0.103810000000     0.0400565  
H542     H      0.572930000000     0.999430000000     0.039910000000     0.0390065  
H543     H      0.713020000000     0.100640000000     0.011630000000     0.0407648  
H544     H      0.608060000000     0.027870000000     0.075280000000     0.0351066  
H545     H      0.786480000000     0.108550000000     0.074960000000     0.0394852  
H546     H      0.592420000000     0.070800000000     0.002250000000     0.035139   
H547     H      0.745050000000     0.139060000000     0.045620000000     0.0363593  
H548     H      0.751420000000     0.103790000000     0.038530000000     0.0359915  
H549     H      0.668260000000     0.077950000000     0.992180000000     0.0451655  
H550     H      0.613240000000     0.068660000000     0.077100000000     0.0399553  
H551     H      0.759770000000     0.149470000000     0.126050000000     0.0389709  
H552     H      0.174040000000     0.828340000000     0.536840000000     0.0408606  
H553     H      0.212100000000     0.829590000000     0.662480000000     0.0348942  
H554     H      0.157690000000     0.849720000000     0.676330000000     0.0427568  
H555     H      0.244850000000     0.891070000000     0.454380000000     0.0369759  
H556     H      0.182910000000     0.811450000000     0.712280000000     0.0412364  
H557     H      0.180940000000     0.883920000000     0.508880000000     0.0349209  
H558     H      0.236490000000     0.861220000000     0.503160000000     0.0349274  
H559     H      0.177850000000     0.883460000000     0.441340000000     0.041661   
H560     H      0.164960000000     0.816890000000     0.601150000000     0.0441345  
H561     H      0.213720000000     0.831630000000     0.731120000000     0.0363811  
H562     H      0.234870000000     0.901700000000     0.567370000000     0.044573   
H563     H      0.225810000000     0.860910000000     0.680100000000     0.0405387  
H564     H      0.234200000000     0.860440000000     0.435450000000     0.0419491  
H565     H      0.172130000000     0.869730000000     0.731110000000     0.0344008  
H566     H      0.171900000000     0.853620000000     0.489540000000     0.0390315  
H567     H      0.204920000000     0.840100000000     0.486260000000     0.0391688  
H568     H      0.226110000000     0.889940000000     0.631770000000     0.0434386  
H569     H      0.183940000000     0.878570000000     0.662650000000     0.0388749  
H570     H      0.208870000000     0.905640000000     0.458140000000     0.0362265  
H571     H      0.102430000000     0.771260000000     0.063980000000     0.0447814  
H572     H      0.181170000000     0.803730000000     0.161030000000     0.0346097  
H573     H      0.133750000000     0.835880000000     0.158940000000     0.0392314  
H574     H      0.100900000000     0.799240000000     0.953660000000     0.0360181  
H575     H      0.167740000000     0.800020000000     0.222450000000     0.0380992  
H576     H      0.144850000000     0.772330000000     0.002920000000     0.0347122  
H577     H      0.120490000000     0.826210000000     0.005900000000     0.0351654  
H578     H      0.147940000000     0.775290000000     0.935460000000     0.0411401  
H579     H      0.112570000000     0.778750000000     0.129090000000     0.045174   
H580     H      0.199740000000     0.825480000000     0.220620000000     0.0416707  
H581     H      0.175720000000     0.834810000000     0.038120000000     0.041067   
H582     H      0.194830000000     0.837360000000     0.160860000000     0.0362692  
H583     H      0.123570000000     0.830230000000     0.938360000000     0.041944   
H584     H      0.132750000000     0.826550000000     0.221440000000     0.0339848  
H585     H      0.166560000000     0.803790000000     0.987380000000     0.0391797  
H586     H      0.152010000000     0.835980000000     0.989030000000     0.0396595  
H587     H      0.185310000000     0.842960000000     0.102550000000     0.039992   
H588     H      0.167800000000     0.855270000000     0.157020000000     0.0412486  
H589     H      0.116240000000     0.764530000000     0.951960000000     0.0366187  
H590     H      0.366320000000     0.941570000000     0.852300000000     0.0406107  
H591     H      0.284610000000     0.863490000000     0.888020000000     0.0344932  
H592     H      0.274720000000     0.926800000000     0.891400000000     0.039533   
H593     H      0.420180000000     0.938910000000     0.959330000000     0.0411986  
H594     H      0.250020000000     0.850860000000     0.848370000000     0.0407782  
H595     H      0.392610000000     0.986920000000     0.911470000000     0.0349959  
H596     H      0.386440000000     0.915360000000     0.918520000000     0.0345449  
H597     H      0.441430000000     0.006400000000     0.909640000000     0.039058   
H598     H      0.320620000000     0.918460000000     0.837880000000     0.0451863  
H599     H      0.236300000000     0.835550000000     0.890310000000     0.0382273  
H600     H      0.348650000000     0.931270000000     0.966420000000     0.0453438  
H601     H      0.268710000000     0.868460000000     0.925630000000     0.0359818  
H602     H      0.434950000000     0.936800000000     0.918560000000     0.0388419  
H603     H      0.237610000000     0.901740000000     0.860230000000     0.035181   
H604     H      0.405320000000     0.975930000000     0.876430000000     0.0352852  
H605     H      0.402230000000     0.935870000000     0.880720000000     0.0358752  
H606     H      0.303200000000     0.907720000000     0.952210000000     0.0401314  
H607     H      0.267010000000     0.906330000000     0.929650000000     0.0393423  
H608     H      0.425950000000     0.995670000000     0.952430000000     0.0403692  
H609     H      0.834030000000     0.629150000000     0.890190000000     0.0402682  
H610     H      0.849260000000     0.675050000000     0.750000000000     0.0444093  
H611     H      0.897640000000     0.653190000000     0.793480000000     0.0397337  
H612     H      0.814340000000     0.672660000000     0.978800000000     0.0366308  
H613     H      0.881080000000     0.706910000000     0.711640000000     0.0414618  
H614     H      0.889920000000     0.690750000000     0.948710000000     0.033383   
H615     H      0.810660000000     0.647590000000     0.926640000000     0.0344707  
H616     H      0.881260000000     0.686260000000     0.014960000000     0.0396969  
H617     H      0.843270000000     0.628920000000     0.825950000000     0.0456894  
H618     H      0.906400000000     0.711810000000     0.741610000000     0.0325001  
H619     H      0.882750000000     0.709840000000     0.892430000000     0.04287    
H620     H      0.869210000000     0.701260000000     0.777830000000     0.0332216  
H621     H      0.801660000000     0.640840000000     0.993560000000     0.0412001  
H622     H      0.885080000000     0.642120000000     0.731640000000     0.0377317  
H623     H      0.872210000000     0.658330000000     0.962450000000     0.0390669  
H624     H      0.826660000000     0.633270000000     0.949540000000     0.0376011  
H625     H      0.894180000000     0.708890000000     0.828990000000     0.0409004  
H626     H      0.913430000000     0.686510000000     0.785120000000     0.0415714  
H627     H      0.868230000000     0.703250000000     0.992170000000     0.038407   
H628     H      0.860540000000     0.628560000000     0.389500000000     0.0410074  
H629     H      0.787130000000     0.592320000000     0.276710000000     0.0348745  
H630     H      0.840270000000     0.668200000000     0.299520000000     0.0390382  
H631     H      0.816300000000     0.601480000000     0.508440000000     0.0380273  
H632     H      0.802290000000     0.602800000000     0.218100000000     0.0387522  
H633     H      0.833540000000     0.663350000000     0.435700000000     0.0347284  
H634     H      0.826750000000     0.591760000000     0.450030000000     0.0347399  
H635     H      0.852090000000     0.676120000000     0.497510000000     0.0417001  
H636     H      0.855220000000     0.629110000000     0.323800000000     0.045224   
H637     H      0.777140000000     0.609770000000     0.216740000000     0.0384469  
H638     H      0.785260000000     0.617760000000     0.405350000000     0.0444311  
H639     H      0.777550000000     0.615660000000     0.279040000000     0.0340668  
H640     H      0.847580000000     0.605450000000     0.511940000000     0.0410379  
H641     H      0.850370000000     0.668080000000     0.238960000000     0.0362132  
H642     H      0.861580000000     0.660690000000     0.442360000000     0.0388659  
H643     H      0.857790000000     0.619570000000     0.450080000000     0.0369201  
H644     H      0.780560000000     0.619920000000     0.339950000000     0.0401648  
H645     H      0.807210000000     0.657720000000     0.292080000000     0.040746   
H646     H      0.819490000000     0.651320000000     0.497270000000     0.0386414  
H647     H      0.662680000000     0.554210000000     0.651600000000     0.0443824  
H648     H      0.745690000000     0.629560000000     0.635980000000     0.0349098  
H649     H      0.757230000000     0.568070000000     0.618740000000     0.0411128  
H650     H      0.600470000000     0.550220000000     0.588980000000     0.0375794  
H651     H      0.788320000000     0.648790000000     0.619200000000     0.0433832  
H652     H      0.641340000000     0.509990000000     0.580340000000     0.0348728  
H653     H      0.644520000000     0.580470000000     0.578760000000     0.0348687  
H654     H      0.600420000000     0.490940000000     0.544730000000     0.0412938  
H655     H      0.707700000000     0.576230000000     0.669600000000     0.0409374  
H656     H      0.790570000000     0.649930000000     0.667640000000     0.0345731  
H657     H      0.684820000000     0.564780000000     0.538970000000     0.0412583  
H658     H      0.749560000000     0.614030000000     0.674950000000     0.0372878  
H659     H      0.603680000000     0.561570000000     0.543370000000     0.0417333  
H660     H      0.796010000000     0.587130000000     0.644070000000     0.0360869  
H661     H      0.643640000000     0.525300000000     0.537630000000     0.0379426  
H662     H      0.645380000000     0.565940000000     0.536690000000     0.0381508  
H663     H      0.729840000000     0.587040000000     0.556990000000     0.0458154  
H664     H      0.744280000000     0.568730000000     0.661640000000     0.0386618  
H665     H      0.598160000000     0.500370000000     0.589980000000     0.0384682  
H666     H      0.066080000000     0.762290000000     0.675350000000     0.0409494  
H667     H      0.984740000000     0.683120000000     0.623630000000     0.0359433  
H668     H      0.986090000000     0.752520000000     0.611890000000     0.0403493  
H669     H      0.068270000000     0.743940000000     0.807740000000     0.0364785  
H670     H      0.969920000000     0.686530000000     0.563070000000     0.0344962  
H671     H      0.048740000000     0.789880000000     0.746940000000     0.034681   
H672     H      0.059240000000     0.726550000000     0.746910000000     0.0350223  
H673     H      0.086110000000     0.812970000000     0.787770000000     0.0414746  
H674     H      0.038270000000     0.745680000000     0.622040000000     0.0441737  
H675     H      0.944710000000     0.660950000000     0.587250000000     0.0423262  
H676     H      0.000220000000     0.730570000000     0.745090000000     0.0449195  
H677     H      0.958770000000     0.684770000000     0.644730000000     0.0440155  
H678     H      0.097330000000     0.749100000000     0.787210000000     0.041491   
H679     H      0.972310000000     0.726060000000     0.556740000000     0.0284188  
H680     H      0.077620000000     0.793110000000     0.727780000000     0.0388518  
H681     H      0.083870000000     0.755600000000     0.727720000000     0.0385465  
H682     H      0.972430000000     0.714890000000     0.691700000000     0.0452697  
H683     H      0.959320000000     0.728380000000     0.636760000000     0.0474021  
H684     H      0.060950000000     0.784870000000     0.807870000000     0.0367944  
N1       N      0.800910000000     0.106410000000     0.678400000000    -0.174998   
N2       N      0.773540000000     0.063060000000     0.721940000000    -0.111464   
N3       N      0.736740000000     0.969490000000     0.797790000000    -0.112619   
N4       N      0.716680000000     0.919140000000     0.820260000000    -0.17247    
N5       N      0.874770000000     0.240440000000     0.592550000000    -0.173555   
N6       N      0.902000000000     0.292140000000     0.574980000000    -0.111528   
N7       N      0.948780000000     0.389950000000     0.511610000000    -0.113649   
N8       N      0.971410000000     0.441880000000     0.497750000000    -0.172333   
N9       N      0.145580000000     0.784580000000     0.368290000000    -0.173539   
N10      N      0.112200000000     0.733560000000     0.387190000000    -0.111884   
N11      N      0.056910000000     0.639420000000     0.459830000000    -0.113695   
N12      N      0.033680000000     0.588090000000     0.478400000000    -0.172205   
N13      N      0.658500000000     0.776440000000     0.870240000000    -0.173521   
N14      N      0.633320000000     0.726130000000     0.897570000000    -0.112888   
N15      N      0.587980000000     0.640970000000     0.991610000000    -0.113963   
N16      N      0.562410000000     0.590790000000     0.015860000000    -0.172779   
N17      N      0.337230000000     0.116240000000     0.175730000000    -0.173605   
N18      N      0.314110000000     0.066570000000     0.202060000000    -0.111219   
N19      N      0.263030000000     0.973570000000     0.278810000000    -0.113434   
N20      N      0.232160000000     0.923510000000     0.301770000000    -0.171758   
N21      N      0.486940000000     0.444990000000     0.984740000000    -0.173824   
N22      N      0.462290000000     0.394900000000     0.002490000000    -0.110179   
N23      N      0.413140000000     0.289820000000     0.032230000000    -0.113552   
N24      N      0.392070000000     0.242220000000     0.065610000000    -0.172009   
N25      N      0.681980000000     0.790620000000     0.442520000000    -0.174808   
N26      N      0.678510000000     0.791160000000     0.519240000000    -0.113101   
N27      N      0.680790000000     0.826240000000     0.663160000000    -0.113269   
N28      N      0.682740000000     0.833770000000     0.738940000000    -0.171718   
N29      N      0.685570000000     0.849230000000     0.251230000000    -0.173286   
N30      N      0.690140000000     0.854700000000     0.176750000000    -0.110356   
N31      N      0.696350000000     0.870090000000     0.023360000000    -0.113536   
N32      N      0.693850000000     0.864200000000     0.947220000000    -0.171965   
N33      N      0.705220000000     0.776310000000     0.298240000000    -0.173173   
N34      N      0.725390000000     0.749670000000     0.259780000000    -0.112612   
N35      N      0.770390000000     0.717710000000     0.151480000000    -0.113855   
N36      N      0.795240000000     0.694860000000     0.117370000000    -0.172524   
N37      N      0.662790000000     0.865120000000     0.390680000000    -0.173708   
N38      N      0.643810000000     0.894470000000     0.423850000000    -0.112478   
N39      N      0.590390000000     0.947430000000     0.448810000000    -0.112797   
N40      N      0.560700000000     0.968500000000     0.468990000000    -0.171557   
N41      N      0.991940000000     0.496430000000     0.897900000000    -0.173495   
N42      N      0.995710000000     0.502860000000     0.822800000000    -0.110768   
N43      N      0.001930000000     0.523320000000     0.670670000000    -0.113431   
N44      N      0.002670000000     0.522180000000     0.594110000000    -0.171923   
N45      N      0.000600000000     0.449840000000     0.093330000000    -0.175333   
N46      N      0.999450000000     0.455900000000     0.169250000000    -0.113      
N47      N      0.002290000000     0.499260000000     0.307200000000    -0.113563   
N48      N      0.003190000000     0.509180000000     0.382220000000    -0.172122   
N49      N      0.960500000000     0.505030000000     0.039310000000    -0.173866   
N50      N      0.935430000000     0.532000000000     0.053720000000    -0.110916   
N51      N      0.884700000000     0.583370000000     0.104240000000    -0.113582   
N52      N      0.860420000000     0.612100000000     0.111590000000    -0.172091   
N53      N      0.353610000000     0.144560000000     0.026150000000    -0.174459   
N54      N      0.353340000000     0.147540000000     0.952240000000    -0.10977    
N55      N      0.356160000000     0.149390000000     0.797560000000    -0.113361   
N56      N      0.357610000000     0.160810000000     0.723110000000    -0.171965   
N57      N      0.362630000000     0.196010000000     0.517140000000    -0.173851   
N58      N      0.368310000000     0.199840000000     0.441320000000    -0.111342   
N59      N      0.377110000000     0.219610000000     0.288960000000    -0.113823   
N60      N      0.375460000000     0.213540000000     0.213020000000    -0.172438   
N61      N      0.471800000000     0.027710000000     0.465980000000    -0.174023   
N62      N      0.445190000000     0.053140000000     0.486610000000    -0.113179   
N63      N      0.405380000000     0.102190000000     0.573940000000    -0.113555   
N64      N      0.386300000000     0.133010000000     0.598960000000    -0.172229   
N65      N      0.155730000000     0.360500000000     0.869170000000    -0.173613   
N66      N      0.120560000000     0.375410000000     0.887620000000    -0.110696   
N67      N      0.059660000000     0.414780000000     0.942870000000    -0.112979   
N68      N      0.032640000000     0.439790000000     0.958420000000    -0.171439   
N69      N      0.239340000000     0.324890000000     0.751030000000    -0.17479    
N70      N      0.264750000000     0.304830000000     0.720370000000    -0.108222   
N71      N      0.313470000000     0.255670000000     0.655470000000    -0.113381   
N72      N      0.333280000000     0.223750000000     0.640010000000    -0.171947   
N73      N      0.501250000000     0.485430000000     0.601690000000    -0.174828   
N74      N      0.493110000000     0.493110000000     0.675450000000    -0.112786   
N75      N      0.515550000000     0.527820000000     0.821520000000    -0.113622   
N76      N      0.522800000000     0.529540000000     0.897200000000    -0.172614   
N77      N      0.557100000000     0.500430000000     0.405400000000    -0.175369   
N78      N      0.543900000000     0.499590000000     0.333760000000    -0.110905   
N79      N      0.529120000000     0.496960000000     0.180140000000    -0.112526   
N80      N      0.526830000000     0.505590000000     0.105410000000    -0.172417   
N81      N      0.846930000000     0.190690000000     0.735950000000    -0.17669    
N82      N      0.847710000000     0.196120000000     0.812070000000    -0.11243    
N83      N      0.880200000000     0.211200000000     0.959620000000    -0.113657   
N84      N      0.879010000000     0.204480000000     0.035490000000    -0.172497   
N85      N      0.821700000000     0.146560000000     0.534360000000    -0.173309   
N86      N      0.821900000000     0.147450000000     0.459490000000    -0.110337   
N87      N      0.815310000000     0.145700000000     0.304960000000    -0.113605   
N88      N      0.824410000000     0.155480000000     0.230130000000    -0.172365   
N89      N      0.175940000000     0.340460000000     0.716930000000    -0.172639   
N90      N      0.179130000000     0.342630000000     0.640210000000    -0.111966   
N91      N      0.164970000000     0.339510000000     0.487000000000    -0.113617   
N92      N      0.172070000000     0.340370000000     0.411270000000    -0.172485   
N93      N      0.231930000000     0.341280000000     0.907460000000    -0.174618   
N94      N      0.227950000000     0.344520000000     0.980170000000    -0.110057   
N95      N      0.227250000000     0.351540000000     0.134280000000    -0.113471   
N96      N      0.213880000000     0.349140000000     0.208000000000    -0.172274   
N97      N      0.919170000000     0.219510000000     0.177880000000    -0.173697   
N98      N      0.971010000000     0.248640000000     0.197680000000    -0.111517   
N99      N      0.069140000000     0.294600000000     0.263900000000    -0.113421   
N100     N      0.120960000000     0.315850000000     0.281890000000    -0.172122   
N101     N      0.264760000000     0.373480000000     0.335860000000    -0.173817   
N102     N      0.312080000000     0.394270000000     0.371180000000    -0.111324   
N103     N      0.414990000000     0.440470000000     0.420080000000    -0.11336    
N104     N      0.461560000000     0.462040000000     0.457730000000    -0.172078   
N105     N      0.515520000000     0.001540000000     0.575630000000    -0.173997   
N106     N      0.526210000000     0.000510000000     0.648900000000    -0.110786   
N107     N      0.545290000000     0.008170000000     0.801290000000    -0.113748   
N108     N      0.539700000000     0.008920000000     0.877120000000    -0.172703   
N109     N      0.476170000000     0.997710000000     0.066900000000    -0.175472   
N110     N      0.478210000000     0.997330000000     0.143480000000    -0.113075   
N111     N      0.511560000000     0.994260000000     0.287030000000    -0.113575   
N112     N      0.516880000000     0.994710000000     0.363100000000    -0.172493   
N113     N      0.574910000000     0.033130000000     0.020470000000    -0.17416    
N114     N      0.627060000000     0.055750000000     0.034100000000    -0.110804   
N115     N      0.730220000000     0.107710000000     0.081880000000    -0.113038   
N116     N      0.782390000000     0.139110000000     0.094940000000    -0.171864   
N117     N      0.187600000000     0.845130000000     0.735260000000    -0.176139   
N118     N      0.188200000000     0.845600000000     0.658540000000    -0.111179   
N119     N      0.210040000000     0.874100000000     0.510010000000    -0.1137     
N120     N      0.207370000000     0.873870000000     0.433590000000    -0.172434   
N121     N      0.171020000000     0.835670000000     0.229770000000    -0.173847   
N122     N      0.154050000000     0.816050000000     0.159330000000    -0.111711   
N123     N      0.131130000000     0.798030000000     0.008390000000    -0.113689   
N124     N      0.134380000000     0.801780000000     0.932060000000    -0.172434   
N125     N      0.229380000000     0.865290000000     0.875840000000    -0.173818   
N126     N      0.281840000000     0.896650000000     0.884180000000    -0.110765   
N127     N      0.387310000000     0.950410000000     0.920470000000    -0.112625   
N128     N      0.439870000000     0.973090000000     0.930260000000    -0.171641   
N129     N      0.890800000000     0.677360000000     0.713070000000    -0.176254   
N130     N      0.873000000000     0.667970000000     0.784080000000    -0.111003   
N131     N      0.850610000000     0.671630000000     0.933730000000    -0.112714   
N132     N      0.840540000000     0.666720000000     0.008800000000    -0.172762   
N133     N      0.814510000000     0.641690000000     0.217110000000    -0.174594   
N134     N      0.817200000000     0.629210000000     0.288430000000    -0.110389   
N135     N      0.826460000000     0.625840000000     0.441160000000    -0.113224   
N136     N      0.845490000000     0.639410000000     0.512210000000    -0.172129   
N137     N      0.798160000000     0.623090000000     0.642880000000    -0.173985   
N138     N      0.748740000000     0.597170000000     0.623920000000    -0.109333   
N139     N      0.643750000000     0.545640000000     0.584800000000    -0.113354   
N140     N      0.596240000000     0.523610000000     0.549240000000    -0.17184    
N141     N      0.941470000000     0.694410000000     0.581910000000    -0.175351   
N142     N      0.987680000000     0.719160000000     0.620900000000    -0.113294   
N143     N      0.050740000000     0.756250000000     0.746480000000    -0.113651   
N144     N      0.092970000000     0.781780000000     0.793070000000    -0.172445   
Ni1      Ni     0.870610000000     0.639960000000     0.615770000000     0.991349   
Ni2      Ni     0.868630000000     0.677390000000     0.608320000000     1.01243    
Ni3      Ni     0.165190000000     0.806520000000     0.831430000000     0.997079   
Ni4      Ni     0.157360000000     0.840720000000     0.836180000000     1.00224    
Ni5      Ni     0.505750000000     0.982960000000     0.975950000000     0.999937   
Ni6      Ni     0.510880000000     0.023700000000     0.968470000000     1.00041    
Ni7      Ni     0.189870000000     0.324130000000     0.311400000000     1.00365    
Ni8      Ni     0.195480000000     0.365250000000     0.307560000000     0.995948   
Ni9      Ni     0.855370000000     0.162920000000     0.129060000000     0.997839   
Ni10     Ni     0.847990000000     0.197210000000     0.136650000000     0.999893   
Ni11     Ni     0.527230000000     0.472750000000     0.505640000000     1.00447    
Ni12     Ni     0.530690000000     0.512950000000     0.500930000000     0.997027   
Ni13     Ni     0.215460000000     0.364070000000     0.811770000000     0.994454   
Ni14     Ni     0.184960000000     0.320750000000     0.818760000000     1.01885    
Ni15     Ni     0.381030000000     0.195220000000     0.624100000000     0.998551   
Ni16     Ni     0.338690000000     0.161480000000     0.616370000000     0.997755   
Ni17     Ni     0.016190000000     0.491780000000     0.000160000000     0.999705   
Ni18     Ni     0.976550000000     0.454420000000     0.990980000000     0.998414   
Ni19     Ni     0.705650000000     0.835340000000     0.351330000000     0.997974   
Ni20     Ni     0.662270000000     0.804720000000     0.342250000000     1.00058    
Ni21     Ni     0.847910000000     0.671620000000     0.119240000000     1.00587    
Ni22     Ni     0.807860000000     0.635530000000     0.106490000000     0.995423   
Ni23     Ni     0.534470000000     0.018510000000     0.468410000000     0.99821    
Ni24     Ni     0.498270000000     0.977530000000     0.470240000000     1.00199    
Ni25     Ni     0.343760000000     0.176380000000     0.118010000000     0.99573    
Ni26     Ni     0.385250000000     0.181470000000     0.121390000000     1.00155    
Ni27     Ni     0.505150000000     0.517690000000     0.005370000000     0.994982   
Ni28     Ni     0.544250000000     0.517980000000     0.997520000000     1.00392    
Ni29     Ni     0.171050000000     0.857220000000     0.335180000000     1.0007     
Ni30     Ni     0.205860000000     0.849870000000     0.329400000000     0.997768   
Ni31     Ni     0.981930000000     0.512780000000     0.486720000000     0.994023   
Ni32     Ni     0.023170000000     0.517200000000     0.489790000000     0.998245   
Ni33     Ni     0.817990000000     0.173870000000     0.634140000000     1.00069    
Ni34     Ni     0.855830000000     0.171090000000     0.633940000000     1.0087     
Ni35     Ni     0.666850000000     0.845130000000     0.843310000000     0.992144   
Ni36     Ni     0.708410000000     0.850320000000     0.843600000000     1.00263    
O1       O      0.882040000000     0.650760000000     0.664560000000    -0.446616   
O2       O      0.858950000000     0.631660000000     0.566570000000    -0.44831    
O3       O      0.905110000000     0.658400000000     0.599160000000    -0.450396   
O4       O      0.835930000000     0.623990000000     0.631820000000    -0.44863    
O5       O      0.833790000000     0.658730000000     0.623280000000    -0.45285    
O6       O      0.903630000000     0.693580000000     0.593970000000    -0.449237   
O7       O      0.858410000000     0.667330000000     0.559370000000    -0.454902   
O8       O      0.878780000000     0.685010000000     0.657780000000    -0.456463   
O9       O      0.151910000000     0.797060000000     0.879580000000    -0.451065   
O10      O      0.178090000000     0.818310000000     0.783590000000    -0.450405   
O11      O      0.198260000000     0.828130000000     0.851320000000    -0.4511     
O12      O      0.131470000000     0.787100000000     0.812020000000    -0.450601   
O13      O      0.124380000000     0.819200000000     0.816010000000    -0.452417   
O14      O      0.190960000000     0.860060000000     0.855960000000    -0.446962   
O15      O      0.170880000000     0.850330000000     0.788230000000    -0.450845   
O16      O      0.144160000000     0.828730000000     0.883810000000    -0.450402   
O17      O      0.490370000000     0.981520000000     0.021990000000    -0.447343   
O18      O      0.521150000000     0.986980000000     0.929250000000    -0.451794   
O19      O      0.538750000000     0.998870000000     0.998300000000    -0.450149   
O20      O      0.473160000000     0.969730000000     0.953380000000    -0.451526   
O21      O      0.477760000000     0.007740000000     0.946440000000    -0.449788   
O22      O      0.543370000000     0.036870000000     0.991400000000    -0.448821   
O23      O      0.526210000000     0.025160000000     0.922390000000    -0.451471   
O24      O      0.495460000000     0.019650000000     0.015100000000    -0.451444   
O25      O      0.180140000000     0.323450000000     0.360990000000    -0.452141   
O26      O      0.199880000000     0.327460000000     0.261560000000    -0.45162    
O27      O      0.224880000000     0.339440000000     0.325600000000    -0.447871   
O28      O      0.155310000000     0.311530000000     0.296840000000    -0.452487   
O29      O      0.160320000000     0.349890000000     0.293850000000    -0.45011    
O30      O      0.230220000000     0.377860000000     0.321440000000    -0.450732   
O31      O      0.204890000000     0.365790000000     0.257800000000    -0.450911   
O32      O      0.185870000000     0.362060000000     0.357640000000    -0.451191   
O33      O      0.868300000000     0.175900000000     0.081730000000    -0.451701   
O34      O      0.842110000000     0.152260000000     0.176910000000    -0.451861   
O35      O      0.821570000000     0.144210000000     0.109550000000    -0.449499   
O36      O      0.888460000000     0.183740000000     0.149530000000    -0.450646   
O37      O      0.881460000000     0.215640000000     0.157020000000    -0.447262   
O38      O      0.814970000000     0.176500000000     0.116100000000    -0.452001   
O39      O      0.834470000000     0.183860000000     0.183700000000    -0.449885   
O40      O      0.861900000000     0.208230000000     0.089080000000    -0.450729   
O41      O      0.540990000000     0.477780000000     0.457740000000    -0.453871   
O42      O      0.513630000000     0.470330000000     0.553200000000    -0.449163   
O43      O      0.493870000000     0.458880000000     0.485130000000    -0.451159   
O44      O      0.560880000000     0.489280000000     0.525840000000    -0.449972   
O45      O      0.563480000000     0.526640000000     0.523210000000    -0.450645   
O46      O      0.497600000000     0.496590000000     0.479060000000    -0.450885   
O47      O      0.515380000000     0.507150000000     0.548050000000    -0.450708   
O48      O      0.545870000000     0.516070000000     0.454150000000    -0.448378   
O49      O      0.199250000000     0.362870000000     0.766500000000    -0.449874   
O50      O      0.229870000000     0.362180000000     0.857050000000    -0.451733   
O51      O      0.236360000000     0.353860000000     0.786330000000    -0.450429   
O52      O      0.192450000000     0.371430000000     0.837330000000    -0.450734   
O53      O      0.163980000000     0.330970000000     0.843940000000    -0.449553   
O54      O      0.207310000000     0.313430000000     0.792110000000    -0.455218   
O55      O      0.201580000000     0.321620000000     0.863410000000    -0.451292   
O56      O      0.171130000000     0.322420000000     0.773230000000    -0.451947   
O57      O      0.381070000000     0.202340000000     0.573530000000    -0.451368   
O58      O      0.378360000000     0.185750000000     0.674120000000    -0.451381   
O59      O      0.392520000000     0.172100000000     0.612790000000    -0.451684   
O60      O      0.366680000000     0.216190000000     0.634830000000    -0.449409   
O61      O      0.327200000000     0.184620000000     0.627110000000    -0.451414   
O62      O      0.352980000000     0.140460000000     0.606010000000    -0.450494   
O63      O      0.338600000000     0.154540000000     0.667180000000    -0.449317   
O64      O      0.341530000000     0.170830000000     0.566160000000    -0.44607    
O65      O      0.012600000000     0.501940000000     0.952380000000    -0.450673   
O66      O      0.017320000000     0.479020000000     0.047190000000    -0.446848   
O67      O      0.032400000000     0.474650000000     0.980080000000    -0.451448   
O68      O      0.997350000000     0.506450000000     0.020040000000    -0.450099   
O69      O      0.960350000000     0.471670000000     0.010650000000    -0.447432   
O70      O      0.995470000000     0.439450000000     0.972230000000    -0.448783   
O71      O      0.979890000000     0.444550000000     0.039110000000    -0.449515   
O72      O      0.975660000000     0.466920000000     0.943600000000    -0.446224   
O73      O      0.705020000000     0.848650000000     0.304530000000    -0.448977   
O74      O      0.703490000000     0.819900000000     0.397470000000    -0.445693   
O75      O      0.714370000000     0.812620000000     0.328660000000    -0.45056    
O76      O      0.694050000000     0.856210000000     0.373060000000    -0.445632   
O77      O      0.653540000000     0.827510000000     0.364580000000    -0.451302   
O78      O      0.673920000000     0.783960000000     0.320310000000    -0.445875   
O79      O      0.662920000000     0.791490000000     0.389060000000    -0.451056   
O80      O      0.664330000000     0.820080000000     0.296120000000    -0.446674   
O81      O      0.853250000000     0.676120000000     0.067990000000    -0.452893   
O82      O      0.839890000000     0.664770000000     0.169590000000    -0.450785   
O83      O      0.862310000000     0.650090000000     0.118950000000    -0.452285   
O84      O      0.830850000000     0.690770000000     0.118900000000    -0.451468   
O85      O      0.793190000000     0.656830000000     0.109220000000    -0.450605   
O86      O      0.825220000000     0.616620000000     0.104830000000    -0.45012    
O87      O      0.803400000000     0.629880000000     0.157770000000    -0.450729   
O88      O      0.814920000000     0.643660000000     0.056070000000    -0.451092   
O89      O      0.533230000000     0.015780000000     0.416580000000    -0.451214   
O90      O      0.533170000000     0.018710000000     0.520300000000    -0.448332   
O91      O      0.555120000000     0.002880000000     0.470180000000    -0.449051   
O92      O      0.511470000000     0.031310000000     0.466640000000    -0.451246   
O93      O      0.477730000000     0.993210000000     0.468330000000    -0.446777   
O94      O      0.521120000000     0.964600000000     0.471810000000    -0.452603   
O95      O      0.499530000000     0.980230000000     0.522070000000    -0.450712   
O96      O      0.499500000000     0.977370000000     0.418310000000    -0.451185   
O97      O      0.350680000000     0.193850000000     0.163310000000    -0.451167   
O98      O      0.339470000000     0.159080000000     0.072960000000    -0.449639   
O99      O      0.331720000000     0.145510000000     0.144060000000    -0.450478   
O100     O      0.358620000000     0.207760000000     0.092380000000    -0.449318   
O101     O      0.397340000000     0.212340000000     0.095440000000    -0.451972   
O102     O      0.370440000000     0.150200000000     0.147140000000    -0.446632   
O103     O      0.378300000000     0.163930000000     0.076160000000    -0.450231   
O104     O      0.389550000000     0.198840000000     0.166360000000    -0.450251   
O105     O      0.507160000000     0.511290000000     0.055950000000    -0.449012   
O106     O      0.505690000000     0.523930000000     0.954330000000    -0.449937   
O107     O      0.488020000000     0.482300000000     0.996290000000    -0.447852   
O108     O      0.524890000000     0.553210000000     0.013600000000    -0.450327   
O109     O      0.561340000000     0.553530000000     0.004960000000    -0.452723   
O110     O      0.524560000000     0.482330000000     0.990640000000    -0.451123   
O111     O      0.541520000000     0.522870000000     0.946800000000    -0.453259   
O112     O      0.544500000000     0.513200000000     0.048700000000    -0.453693   
O113     O      0.163020000000     0.847180000000     0.285560000000    -0.44806    
O114     O      0.181580000000     0.867120000000     0.384310000000    -0.451696   
O115     O      0.193420000000     0.890940000000     0.319530000000    -0.45097    
O116     O      0.150930000000     0.822950000000     0.350700000000    -0.44975    
O117     O      0.183460000000     0.816160000000     0.345100000000    -0.447303   
O118     O      0.226090000000     0.884230000000     0.314390000000    -0.449563   
O119     O      0.213920000000     0.859940000000     0.379080000000    -0.450185   
O120     O      0.195470000000     0.840220000000     0.280090000000    -0.449776   
O121     O      0.983160000000     0.516080000000     0.538600000000    -0.448795   
O122     O      0.983330000000     0.509530000000     0.435100000000    -0.449055   
O123     O      0.968180000000     0.477350000000     0.491860000000    -0.451622   
O124     O      0.998440000000     0.548640000000     0.481660000000    -0.449206   
O125     O      0.036910000000     0.552650000000     0.485030000000    -0.45185    
O126     O      0.006650000000     0.481320000000     0.494410000000    -0.450152   
O127     O      0.022060000000     0.514130000000     0.437970000000    -0.450561   
O128     O      0.021760000000     0.520330000000     0.541330000000    -0.450617   
O129     O      0.811950000000     0.160980000000     0.585830000000    -0.453094   
O130     O      0.826290000000     0.186480000000     0.682630000000    -0.452566   
O131     O      0.837860000000     0.207210000000     0.615150000000    -0.450788   
O132     O      0.800760000000     0.140250000000     0.653120000000    -0.448911   
O133     O      0.836310000000     0.137880000000     0.652480000000    -0.449631   
O134     O      0.873190000000     0.204790000000     0.615750000000    -0.448796   
O135     O      0.861110000000     0.182890000000     0.682980000000    -0.446463   
O136     O      0.847380000000     0.158610000000     0.585140000000    -0.445674   
O137     O      0.671020000000     0.852770000000     0.894100000000    -0.449761   
O138     O      0.665400000000     0.837740000000     0.792350000000    -0.447706   
O139     O      0.654180000000     0.810470000000     0.854660000000    -0.450919   
O140     O      0.682370000000     0.880320000000     0.832620000000    -0.449729   
O141     O      0.721090000000     0.884800000000     0.831240000000    -0.452213   
O142     O      0.692900000000     0.815380000000     0.855720000000    -0.446755   
O143     O      0.704100000000     0.842170000000     0.793100000000    -0.451414   
O144     O      0.710220000000     0.858480000000     0.894170000000    -0.449875   
S1       S      0.784110000000     0.080750000000     0.619480000000    -0.0203585  
S2       S      0.908870000000     0.233410000000     0.561240000000    -0.0105053  
S3       S      0.183760000000     0.782640000000     0.396660000000    -0.013856   
S4       S      0.702720000000     0.781360000000     0.888710000000    -0.00984107 
S5       S      0.378970000000     0.127760000000     0.209380000000    -0.0143226  
S6       S      0.449200000000     0.440340000000     0.947850000000    -0.0190352  
S7       S      0.731740000000     0.810000000000     0.446480000000    -0.010878   
S8       S      0.641590000000     0.845320000000     0.250850000000    -0.0166729  
S9       S      0.660860000000     0.748410000000     0.267120000000    -0.0088614  
S10      S      0.704210000000     0.905830000000     0.371540000000    -0.0104103  
S11      S      0.943960000000     0.480240000000     0.896690000000    -0.014904   
S12      S      0.050630000000     0.473650000000     0.093510000000    -0.0132548  
S13      S      0.923340000000     0.464570000000     0.065650000000    -0.0168529  
S14      S      0.369780000000     0.114380000000     0.014660000000    -0.025091   
S15      S      0.315920000000     0.185300000000     0.512330000000    -0.0155515  
S16      S      0.429070000000     0.984080000000     0.471300000000    -0.00935675 
S17      S      0.133080000000     0.321230000000     0.909190000000    -0.0126009  
S18      S      0.211500000000     0.315570000000     0.690680000000    -0.0437227  
S19      S      0.522200000000     0.458870000000     0.622270000000    -0.0117094  
S20      S      0.597050000000     0.543010000000     0.400520000000    -0.023515   
S21      S      0.844120000000     0.144380000000     0.740560000000    -0.0312264  
S22      S      0.837130000000     0.114730000000     0.536330000000    -0.0122147  
S23      S      0.148270000000     0.291570000000     0.714330000000    -0.00571183 
S24      S      0.232840000000     0.300450000000     0.910210000000    -0.0198364  
S25      S      0.907980000000     0.248370000000     0.215090000000    -0.0130862  
S26      S      0.270460000000     0.337910000000     0.309020000000    -0.0143422  
S27      S      0.526240000000     0.047480000000     0.579550000000    -0.0179522  
S28      S      0.450060000000     0.948280000000     0.065030000000    -0.0128516  
S29      S      0.571950000000     0.068360000000     0.053430000000    -0.0185686  
S30      S      0.213620000000     0.891810000000     0.722530000000    -0.0236381  
S31      S      0.156410000000     0.868330000000     0.220430000000    -0.0139001  
S32      S      0.219970000000     0.894260000000     0.914880000000    -0.0157035  
S33      S      0.926620000000     0.668420000000     0.725990000000    -0.0288327  
S34      S      0.827300000000     0.686920000000     0.233920000000    -0.0208069  
S35      S      0.786540000000     0.595320000000     0.698280000000    -0.025434   
S36      S      0.943550000000     0.737270000000     0.567000000000    -0.0108218  


