data_structure

_audit_creation_method RASPA-1.0
_audit_creation_date 2023-5-25
_audit_author_name 'Poobodin Mano'

_cell_length_a    38.1003
_cell_length_b    37.7796
_cell_length_c    37.7318
_cell_angle_alpha 90
_cell_angle_beta  90
_cell_angle_gamma 90
_cell_volume      54311.7

_symmetry_cell_setting          triclinic
_symmetry_space_group_name_Hall 'P 1'
_symmetry_space_group_name_H-M  'P 1'
_symmetry_Int_Tables_number     1

_symmetry_equiv_pos_as_xyz 'x,y,z'

loop_
_atom_site_label
_atom_site_type_symbol
_atom_site_fract_x
_atom_site_fract_y
_atom_site_fract_z
_atom_site_charge
C1       C      0.996800000000     0.065510000000     0.482610000000     0.43327    
C2       C      0.990450000000     0.931540000000     0.496820000000     0.430003   
C3       C      0.926340000000     0.002370000000     0.486830000000     0.42907    
C4       C      0.059970000000     0.995720000000     0.492220000000     0.433912   
C5       C      0.988620000000     0.433260000000     0.483760000000     0.432112   
C6       C      0.980960000000     0.563810000000     0.517450000000     0.429982   
C7       C      0.980850000000     0.481840000000     0.566340000000     0.427484   
C8       C      0.989040000000     0.514260000000     0.435100000000     0.427529   
C9       C      0.558940000000     0.995800000000     0.487980000000     0.427979   
C10      C      0.426390000000     0.983920000000     0.503640000000     0.43432    
C11      C      0.484550000000     0.995150000000     0.428730000000     0.430051   
C12      C      0.499550000000     0.984590000000     0.562710000000     0.430593   
C13      C      0.501610000000     0.014060000000     0.061760000000     0.431936   
C14      C      0.499970000000     0.976080000000     0.931950000000     0.432099   
C15      C      0.505680000000     0.059740000000     0.977610000000     0.429465   
C16      C      0.495950000000     0.930280000000     0.015710000000     0.428604   
C17      C      0.003580000000     0.520660000000     0.065870000000     0.431147   
C18      C      0.981570000000     0.499190000000     0.934090000000     0.427536   
C19      C      0.058650000000     0.505780000000     0.990950000000     0.428801   
C20      C      0.926310000000     0.514030000000     0.010500000000     0.427581   
C21      C      0.426150000000     0.490900000000     0.989010000000     0.427494   
C22      C      0.559590000000     0.499430000000     0.998890000000     0.427239   
C23      C      0.497620000000     0.428730000000     0.984350000000     0.425956   
C24      C      0.487520000000     0.562290000000     0.003740000000     0.426574   
C25      C      0.835670000000     0.482470000000     0.024620000000    -0.0253534  
C26      C      0.653000000000     0.521580000000     0.978650000000    -0.0310156  
C27      C      0.612540000000     0.484880000000     0.033130000000    -0.00523492 
C28      C      0.616600000000     0.507230000000     0.969300000000    -0.00441852 
C29      C      0.720380000000     0.530460000000     0.031900000000    -0.0544541  
C30      C      0.765800000000     0.489000000000     0.991070000000    -0.0570277  
C31      C      0.706460000000     0.504660000000     0.008860000000     0.061572   
C32      C      0.649480000000     0.499610000000     0.038760000000    -0.0305444  
C33      C      0.779740000000     0.512730000000     0.016200000000     0.0650172  
C34      C      0.833620000000     0.539940000000     0.995790000000    -0.00490898 
C35      C      0.756700000000     0.533900000000     0.035910000000    -0.0526268  
C36      C      0.871470000000     0.548800000000     0.007200000000    -0.054204   
C37      C      0.873110000000     0.488490000000     0.037650000000    -0.00520749 
C38      C      0.729520000000     0.484620000000     0.988030000000    -0.0525077  
C39      C      0.871800000000     0.574460000000     0.037900000000     0.313524   
C40      C      0.152120000000     0.526980000000     0.967690000000    -0.0266895  
C41      C      0.333340000000     0.481720000000     0.017310000000    -0.0304794  
C42      C      0.372620000000     0.496670000000     0.952690000000    -0.00452088 
C43      C      0.370750000000     0.467680000000     0.013470000000    -0.00538172 
C44      C      0.264350000000     0.516080000000     0.006850000000    -0.0546227  
C45      C      0.220960000000     0.476400000000     0.962170000000    -0.0561347  
C46      C      0.279360000000     0.491100000000     0.983610000000     0.0618184  
C47      C      0.335290000000     0.510030000000     0.959600000000    -0.0309597  
C48      C      0.205830000000     0.499040000000     0.987620000000     0.0644695  
C49      C      0.149760000000     0.467820000000     0.991870000000    -0.00507992 
C50      C      0.227890000000     0.519420000000     0.009200000000    -0.0517174  
C51      C      0.112060000000     0.472470000000     0.005350000000    -0.0553269  
C52      C      0.114950000000     0.535810000000     0.980420000000    -0.00360931 
C53      C      0.257360000000     0.472080000000     0.960730000000    -0.0522389  
C54      C      0.111710000000     0.475610000000     0.045280000000     0.314374   
C55      C      0.515270000000     0.834950000000     0.013350000000    -0.0264693  
C56      C      0.477710000000     0.649530000000     0.049890000000    -0.0307252  
C57      C      0.487830000000     0.622220000000     0.978260000000    -0.00451509 
C58      C      0.467010000000     0.611310000000     0.041610000000    -0.00558728 
C59      C      0.500410000000     0.724220000000     0.048960000000    -0.0546518  
C60      C      0.460520000000     0.768840000000     0.005640000000    -0.0560917  
C61      C      0.477250000000     0.709350000000     0.023890000000     0.0614442  
C62      C      0.498650000000     0.659330000000     0.990180000000    -0.0311622  
C63      C      0.482330000000     0.783700000000     0.031910000000     0.0647793  
C64      C      0.454600000000     0.842580000000     0.031510000000    -0.00382284 
C65      C      0.502280000000     0.760950000000     0.053290000000    -0.0518799  
C66      C      0.460810000000     0.881600000000     0.041760000000    -0.0557226  
C67      C      0.524880000000     0.872570000000     0.024670000000    -0.00437035 
C68      C      0.457560000000     0.732120000000     0.002310000000    -0.0519733  
C69      C      0.462490000000     0.886030000000     0.081510000000     0.311482   
C70      C      0.533710000000     0.152540000000     0.981840000000    -0.0267956  
C71      C      0.501930000000     0.339890000000     0.939190000000    -0.0305935  
C72      C      0.502510000000     0.369560000000     0.010690000000    -0.00411967 
C73      C      0.488580000000     0.377790000000     0.944710000000    -0.00565785 
C74      C      0.524590000000     0.265550000000     0.943510000000    -0.0543767  
C75      C      0.483870000000     0.221760000000     0.986880000000    -0.0566113  
C76      C      0.500500000000     0.280880000000     0.967410000000     0.0614369  
C77      C      0.516780000000     0.333050000000     0.000990000000    -0.0306245  
C78      C      0.506090000000     0.206420000000     0.961270000000     0.0648554  
C79      C      0.474830000000     0.150010000000     0.956910000000    -0.00314199 
C80      C      0.526770000000     0.228710000000     0.940120000000    -0.0517785  
C81      C      0.479130000000     0.110850000000     0.946680000000    -0.0559643  
C82      C      0.541220000000     0.114110000000     0.971200000000    -0.00446574 
C83      C      0.480610000000     0.258500000000     0.989230000000    -0.0519737  
C84      C      0.485690000000     0.106590000000     0.907420000000     0.311382   
C85      C      0.502280000000     0.009870000000     0.659120000000    -0.0238514  
C86      C      0.472210000000     0.977840000000     0.839060000000    -0.0325019  
C87      C      0.530520000000     0.949790000000     0.880360000000    -0.00410784 
C88      C      0.466050000000     0.965790000000     0.877220000000    -0.001803   
C89      C      0.522990000000     0.986060000000     0.768340000000    -0.0535008  
C90      C      0.476900000000     0.945330000000     0.727660000000    -0.0519371  
C91      C      0.501480000000     0.960680000000     0.785080000000     0.0623789  
C92      C      0.533840000000     0.961490000000     0.841670000000    -0.0310852  
C93      C      0.498420000000     0.970280000000     0.710850000000     0.0655475  
C94      C      0.516580000000     0.947900000000     0.653500000000    -0.00650541 
C95      C      0.522260000000     0.990020000000     0.731500000000    -0.055358   
C96      C      0.503630000000     0.945940000000     0.615030000000    -0.0530112  
C97      C      0.490040000000     0.012540000000     0.620620000000    -0.00745238 
C98      C      0.478720000000     0.940290000000     0.764240000000    -0.0518644  
C99      C      0.468750000000     0.926930000000     0.613360000000     0.317712   
C100     C      0.499860000000     0.979340000000     0.333340000000    -0.0267419  
C101     C      0.464470000000     0.030010000000     0.149560000000    -0.0320858  
C102     C      0.533720000000     0.019340000000     0.118470000000    -0.00307882 
C103     C      0.472270000000     0.043660000000     0.112260000000    -0.00295543 
C104     C      0.468120000000     0.996300000000     0.220240000000    -0.0552119  
C105     C      0.506520000000     0.036220000000     0.269150000000    -0.0559625  
C106     C      0.491330000000     0.022670000000     0.208040000000     0.0630807  
C107     C      0.523550000000     0.005950000000     0.155380000000    -0.031426   
C108     C      0.481450000000     0.011630000000     0.281370000000     0.0652019  
C109     C      0.474120000000     0.037690000000     0.340400000000    -0.00373472 
C110     C      0.462810000000     0.991430000000     0.256560000000    -0.0508503  
C111     C      0.461270000000     0.029250000000     0.378100000000    -0.0553929  
C112     C      0.486840000000     0.967300000000     0.369730000000    -0.00397051 
C113     C      0.510800000000     0.042060000000     0.232840000000    -0.0526557  
C114     C      0.422100000000     0.023070000000     0.378660000000     0.311857   
C115     C      0.940740000000     0.469580000000     0.654860000000    -0.0256238  
C116     C      0.987110000000     0.511320000000     0.836620000000    -0.0311379  
C117     C      0.958150000000     0.460510000000     0.886930000000    -0.00555738 
C118     C      0.977370000000     0.523770000000     0.873860000000    -0.00433252 
C119     C      0.987640000000     0.451090000000     0.772930000000    -0.0543307  
C120     C      0.947220000000     0.494260000000     0.728620000000    -0.0565325  
C121     C      0.964880000000     0.476380000000     0.788020000000     0.061338   
C122     C      0.967550000000     0.451530000000     0.848460000000    -0.0307624  
C123     C      0.968760000000     0.467890000000     0.713570000000     0.0646967  
C124     C      0.002190000000     0.484970000000     0.661930000000    -0.00461091 
C125     C      0.988900000000     0.446520000000     0.736170000000    -0.0526188  
C126     C      0.010960000000     0.473870000000     0.623710000000    -0.0542193  
C127     C      0.946290000000     0.457890000000     0.616430000000    -0.00528287 
C128     C      0.944830000000     0.497800000000     0.765400000000    -0.0523104  
C129     C      0.029030000000     0.438280000000     0.622820000000     0.313463   
C130     C      0.028640000000     0.529720000000     0.344970000000    -0.0260141  
C131     C      0.990760000000     0.556420000000     0.155320000000    -0.0308879  
C132     C      0.029790000000     0.499200000000     0.121600000000    -0.00544732 
C133     C      0.004760000000     0.561050000000     0.117440000000    -0.00468014 
C134     C      0.981230000000     0.509690000000     0.227960000000    -0.0542053  
C135     C      0.021240000000     0.553680000000     0.271790000000    -0.0550767  
C136     C      0.006500000000     0.532320000000     0.212790000000     0.0626243  
C137     C      0.015230000000     0.496960000000     0.159180000000    -0.0298167  
C138     C      0.998590000000     0.528410000000     0.287130000000     0.0643646  
C139     C      0.966320000000     0.540470000000     0.341590000000    -0.00647786 
C140     C      0.978000000000     0.507270000000     0.264760000000    -0.0514186  
C141     C      0.959140000000     0.523360000000     0.377870000000    -0.0541304  
C142     C      0.026040000000     0.513570000000     0.382020000000    -0.00401309 
C143     C      0.025560000000     0.555010000000     0.235000000000    -0.0523616  
C144     C      0.942200000000     0.487520000000     0.372890000000     0.318042   
C145     C      0.335200000000     0.955040000000     0.487560000000    -0.0268564  
C146     C      0.150810000000     0.998220000000     0.529130000000    -0.0310505  
C147     C      0.115940000000     0.984940000000     0.461550000000    -0.00431875 
C148     C      0.114150000000     0.013400000000     0.522910000000    -0.0030757  
C149     C      0.220430000000     0.964240000000     0.523500000000    -0.0544153  
C150     C      0.266240000000     0.002140000000     0.479750000000    -0.055856   
C151     C      0.206790000000     0.988590000000     0.498760000000     0.0629578  
C152     C      0.152170000000     0.970430000000     0.471310000000    -0.0297665  
C153     C      0.279920000000     0.980210000000     0.506600000000     0.0655402  
C154     C      0.334260000000     0.012440000000     0.516680000000    -0.00429929 
C155     C      0.256720000000     0.960680000000     0.527730000000    -0.0509193  
C156     C      0.372230000000     0.008380000000     0.529630000000    -0.0537928  
C157     C      0.372660000000     0.947550000000     0.500290000000    -0.00253805 
C158     C      0.230020000000     0.006680000000     0.476390000000    -0.0509313  
C159     C      0.373440000000     0.999590000000     0.568670000000     0.312926   
C160     C      0.831900000000     0.992230000000     0.510080000000    -0.0270403  
C161     C      0.647720000000     0.037150000000     0.481000000000    -0.0306614  
C162     C      0.616460000000     0.966680000000     0.483080000000    -0.00439391 
C163     C      0.609360000000     0.032490000000     0.469830000000    -0.00539893 
C164     C      0.721880000000     0.030410000000     0.501150000000    -0.054566   
C165     C      0.762840000000     0.987600000000     0.457030000000    -0.0562323  
C166     C      0.705330000000     0.007760000000     0.476590000000     0.061885   
C167     C      0.653920000000     0.974920000000     0.494930000000    -0.030918   
C168     C      0.779390000000     0.011870000000     0.479970000000     0.0649864  
C169     C      0.836020000000     0.010400000000     0.448710000000    -0.00383443 
C170     C      0.758480000000     0.032880000000     0.502180000000    -0.0518682  
C171     C      0.874670000000     0.021360000000     0.452610000000    -0.0558299  
C172     C      0.869620000000     0.003640000000     0.517960000000    -0.00321891 
C173     C      0.726270000000     0.986260000000     0.454900000000    -0.0523473  
C174     C      0.878190000000     0.061190000000     0.452840000000     0.312525   
C175     C      0.971090000000     0.836120000000     0.480810000000    -0.0266856  
C176     C      0.013290000000     0.653820000000     0.531240000000    -0.0305911  
C177     C      0.945820000000     0.618560000000     0.522350000000    -0.00446418 
C178     C      0.008040000000     0.616350000000     0.545430000000    -0.00491932 
C179     C      0.005330000000     0.723810000000     0.497580000000    -0.0547182  
C180     C      0.964480000000     0.770500000000     0.537630000000    -0.0561608  
C181     C      0.982820000000     0.710400000000     0.524010000000     0.0620503  
C182     C      0.953490000000     0.655810000000     0.508360000000    -0.0309728  
C183     C      0.989130000000     0.784020000000     0.513280000000     0.0648452  
C184     C      0.993030000000     0.842750000000     0.540650000000    -0.00443936 
C185     C      0.008900000000     0.760290000000     0.492900000000    -0.0516288  
C186     C      0.006510000000     0.880360000000     0.533570000000    -0.055306   
C187     C      0.984480000000     0.872660000000     0.469740000000    -0.00358115 
C188     C      0.961980000000     0.734060000000     0.543350000000    -0.0525019  
C189     C      0.046090000000     0.880700000000     0.531100000000     0.313226   
C190     C      0.982180000000     0.161500000000     0.498770000000    -0.0269411  
C191     C      0.028610000000     0.345670000000     0.468910000000    -0.0307071  
C192     C      0.958650000000     0.376860000000     0.470860000000    -0.00363587 
C193     C      0.023580000000     0.384390000000     0.458430000000    -0.00447098 
C194     C      0.020150000000     0.271630000000     0.491660000000    -0.0544931  
C195     C      0.984040000000     0.228910000000     0.443330000000    -0.0557125  
C196     C      0.000410000000     0.287490000000     0.464350000000     0.0630536  
C197     C      0.966430000000     0.338630000000     0.481630000000    -0.0310931  
C198     C      0.005430000000     0.213090000000     0.469380000000     0.0658323  
C199     C      0.007690000000     0.154730000000     0.440470000000    -0.00472336 
C200     C      0.023170000000     0.234860000000     0.493540000000    -0.0512691  
C201     C      0.018170000000     0.116050000000     0.447520000000    -0.054115   
C202     C      0.992790000000     0.124230000000     0.510050000000    -0.00209889 
C203     C      0.982240000000     0.265730000000     0.440520000000    -0.0517795  
C204     C      0.057430000000     0.112930000000     0.452190000000     0.312939   
H1       H      0.719250000000     0.465440000000     0.969380000000     0.0449719  
H2       H      0.822030000000     0.464710000000     0.043710000000     0.0373864  
H3       H      0.818390000000     0.564980000000     0.993070000000     0.0362577  
H4       H      0.614360000000     0.455680000000     0.029880000000     0.0380398  
H5       H      0.872120000000     0.496890000000     0.065870000000     0.0508825  
H6       H      0.669050000000     0.522080000000     0.953990000000     0.0352378  
H7       H      0.662910000000     0.483310000000     0.059260000000     0.0363042  
H8       H      0.603230000000     0.526650000000     0.951730000000     0.0401527  
H9       H      0.884130000000     0.561960000000     0.984060000000     0.0640685  
H10      H      0.782760000000     0.473340000000     0.974280000000     0.0419607  
H11      H      0.887340000000     0.462820000000     0.036810000000     0.0434058  
H12      H      0.703430000000     0.547450000000     0.047350000000     0.0423563  
H13      H      0.836950000000     0.468920000000     0.998460000000     0.0369974  
H14      H      0.596880000000     0.489950000000     0.057480000000     0.042251   
H15      H      0.650820000000     0.549230000000     0.988700000000     0.0391135  
H16      H      0.647210000000     0.527200000000     0.048870000000     0.0378959  
H17      H      0.767010000000     0.553060000000     0.054560000000     0.0535685  
H18      H      0.834090000000     0.527000000000     0.969250000000     0.033289   
H19      H      0.619750000000     0.482230000000     0.954060000000     0.039939   
H20      H      0.853820000000     0.583110000000     0.087850000000     0.178934   
H21      H      0.268540000000     0.453590000000     0.941930000000     0.0458676  
H22      H      0.167470000000     0.552040000000     0.966660000000     0.036266   
H23      H      0.163750000000     0.448020000000     0.008610000000     0.0383143  
H24      H      0.371230000000     0.472720000000     0.935620000000     0.0394917  
H25      H      0.116790000000     0.552980000000     0.004280000000     0.0535574  
H26      H      0.318250000000     0.463170000000     0.034430000000     0.037288   
H27      H      0.321690000000     0.512770000000     0.933630000000     0.0356474  
H28      H      0.383790000000     0.468800000000     0.039800000000     0.0427178  
H29      H      0.097570000000     0.447920000000     0.998000000000     0.0661317  
H30      H      0.204800000000     0.461330000000     0.944080000000     0.042463   
H31      H      0.101410000000     0.551400000000     0.959470000000     0.0399025  
H32      H      0.280560000000     0.532350000000     0.023810000000     0.042499   
H33      H      0.151160000000     0.515760000000     0.940400000000     0.0376504  
H34      H      0.387220000000     0.517420000000     0.937840000000     0.0409203  
H35      H      0.334510000000     0.507920000000     0.030740000000     0.0386699  
H36      H      0.336220000000     0.536600000000     0.972370000000     0.039452   
H37      H      0.216700000000     0.537710000000     0.028200000000     0.0508436  
H38      H      0.148570000000     0.456980000000     0.964460000000     0.0324862  
H39      H      0.369440000000     0.439370000000     0.005520000000     0.0382214  
H40      H      0.124340000000     0.507640000000     0.086600000000     0.177686   
H41      H      0.440340000000     0.721240000000     0.982220000000     0.0450265  
H42      H      0.539140000000     0.818150000000     0.016060000000     0.0357181  
H43      H      0.433040000000     0.831360000000     0.047970000000     0.0379596  
H44      H      0.462490000000     0.624020000000     0.963750000000     0.0396442  
H45      H      0.536800000000     0.871650000000     0.051550000000     0.0510079  
H46      H      0.460320000000     0.659860000000     0.071210000000     0.036657   
H47      H      0.497520000000     0.677120000000     0.966680000000     0.0350235  
H48      H      0.473740000000     0.594430000000     0.064780000000     0.0422953  
H49      H      0.437570000000     0.896620000000     0.032050000000     0.066324   
H50      H      0.445720000000     0.785290000000     0.987600000000     0.0422213  
H51      H      0.545130000000     0.882780000000     0.006070000000     0.0415038  
H52      H      0.517030000000     0.707770000000     0.065310000000     0.0420752  
H53      H      0.507200000000     0.834760000000     0.984960000000     0.0384082  
H54      H      0.507910000000     0.612160000000     0.959380000000     0.0406266  
H55      H      0.505190000000     0.649340000000     0.059910000000     0.037877   
H56      H      0.526210000000     0.659030000000     0.000030000000     0.0394451  
H57      H      0.519960000000     0.771860000000     0.072930000000     0.0501936  
H58      H      0.445830000000     0.842140000000     0.003380000000     0.0325173  
H59      H      0.438020000000     0.610330000000     0.038390000000     0.0383582  
H60      H      0.484710000000     0.867190000000     0.126680000000     0.178381   
H61      H      0.462660000000     0.269720000000     0.008450000000     0.0452145  
H62      H      0.559000000000     0.167310000000     0.981670000000     0.0361898  
H63      H      0.456220000000     0.163060000000     0.938260000000     0.0382461  
H64      H      0.476240000000     0.366350000000     0.023160000000     0.040551   
H65      H      0.555840000000     0.114000000000     0.945710000000     0.0510396  
H66      H      0.487520000000     0.328010000000     0.916450000000     0.0366681  
H67      H      0.514510000000     0.315780000000     0.024790000000     0.0348179  
H68      H      0.498140000000     0.394540000000     0.922470000000     0.0419082  
H69      H      0.453620000000     0.097810000000     0.952770000000     0.0664464  
H70      H      0.468630000000     0.205600000000     0.004810000000     0.0425499  
H71      H      0.558380000000     0.101950000000     0.991700000000     0.040813   
H72      H      0.541350000000     0.281720000000     0.927020000000     0.0420103  
H73      H      0.522910000000     0.153350000000     0.009270000000     0.0385833  
H74      H      0.520170000000     0.381590000000     0.030850000000     0.0400261  
H75      H      0.530320000000     0.341020000000     0.932300000000     0.037255   
H76      H      0.545100000000     0.334910000000     0.993870000000     0.0389614  
H77      H      0.544720000000     0.217390000000     0.920950000000     0.0507954  
H78      H      0.462900000000     0.150800000000     0.983810000000     0.0328085  
H79      H      0.459430000000     0.377610000000     0.943200000000     0.0388362  
H80      H      0.513530000000     0.125290000000     0.865490000000     0.178749   
H81      H      0.461720000000     0.920910000000     0.776610000000     0.0470164  
H82      H      0.487730000000     0.029850000000     0.675060000000     0.0396958  
H83      H      0.514300000000     0.921210000000     0.665900000000     0.0373185  
H84      H      0.527670000000     0.920510000000     0.880990000000     0.036905   
H85      H      0.460950000000     0.014760000000     0.620290000000     0.0674264  
H86      H      0.447160000000     0.974510000000     0.824230000000     0.0396683  
H87      H      0.554810000000     0.945570000000     0.828740000000     0.0360343  
H88      H      0.446050000000     0.983460000000     0.889390000000     0.0486636  
H89      H      0.523210000000     0.930070000000     0.599890000000     0.063196   
H90      H      0.458660000000     0.929660000000     0.712210000000     0.0540016  
H91      H      0.500510000000     0.037550000000     0.609200000000     0.0463229  
H92      H      0.540480000000     0.002830000000     0.783370000000     0.043003   
H93      H      0.530770000000     0.016390000000     0.660220000000     0.0357357  
H94      H      0.555210000000     0.956520000000     0.894530000000     0.0428788  
H95      H      0.479340000000     0.006440000000     0.838590000000     0.0515064  
H96      H      0.541760000000     0.989840000000     0.841370000000     0.0417349  
H97      H      0.539830000000     0.009060000000     0.719550000000     0.0422638  
H98      H      0.544910000000     0.955200000000     0.654000000000     0.0341253  
H99      H      0.455230000000     0.938460000000     0.876860000000     0.0390335  
H100     H      0.416340000000     0.932280000000     0.621710000000     0.182658   
H101     H      0.529580000000     0.061640000000     0.223910000000     0.0455362  
H102     H      0.501480000000     0.955640000000     0.315870000000     0.0366866  
H103     H      0.456510000000     0.057730000000     0.328040000000     0.0379796  
H104     H      0.547310000000     0.045230000000     0.121310000000     0.0379639  
H105     H      0.462370000000     0.951640000000     0.366260000000     0.0521921  
H106     H      0.444680000000     0.047690000000     0.162090000000     0.0387503  
H107     H      0.547580000000     0.005660000000     0.172170000000     0.0362399  
H108     H      0.448030000000     0.041780000000     0.095990000000     0.0454063  
H109     H      0.466820000000     0.053200000000     0.394390000000     0.0665523  
H110     H      0.522540000000     0.051220000000     0.287400000000     0.0422949  
H111     H      0.506950000000     0.949480000000     0.381500000000     0.041564   
H112     H      0.453770000000     0.979690000000     0.201960000000     0.0468724  
H113     H      0.526680000000     0.990860000000     0.335720000000     0.038394   
H114     H      0.552490000000     0.000250000000     0.106470000000     0.043139   
H115     H      0.453050000000     0.003010000000     0.147160000000     0.0472996  
H116     H      0.513380000000     0.978360000000     0.153510000000     0.0453968  
H117     H      0.444260000000     0.971630000000     0.265490000000     0.0521398  
H118     H      0.500710000000     0.049680000000     0.342650000000     0.0322962  
H119     H      0.479400000000     0.072140000000     0.114160000000     0.0368465  
H120     H      0.382340000000     0.995020000000     0.356330000000     0.179206   
H121     H      0.927880000000     0.518010000000     0.776430000000     0.0448637  
H122     H      0.918610000000     0.454090000000     0.666270000000     0.0371982  
H123     H      0.026010000000     0.481550000000     0.678730000000     0.0358295  
H124     H      0.929200000000     0.463650000000     0.888860000000     0.0380155  
H125     H      0.948070000000     0.428540000000     0.615720000000     0.0508135  
H126     H      0.984930000000     0.534420000000     0.818430000000     0.0354853  
H127     H      0.950110000000     0.429770000000     0.839250000000     0.036353   
H128     H      0.997240000000     0.543490000000     0.882640000000     0.0418721  
H129     H      0.029700000000     0.494080000000     0.613450000000     0.0645493  
H130     H      0.932220000000     0.512220000000     0.712300000000     0.0419446  
H131     H      0.922770000000     0.465490000000     0.600750000000     0.0430585  
H132     H      0.004470000000     0.434800000000     0.789210000000     0.0426962  
H133     H      0.933350000000     0.498080000000     0.654690000000     0.0370313  
H134     H      0.965580000000     0.437770000000     0.904060000000     0.042735   
H135     H      0.014850000000     0.501990000000     0.836140000000     0.0402777  
H136     H      0.995170000000     0.441940000000     0.847850000000     0.038438   
H137     H      0.006340000000     0.426760000000     0.725090000000     0.0535544  
H138     H      0.995240000000     0.513620000000     0.662460000000     0.0336459  
H139     H      0.951510000000     0.537400000000     0.872760000000     0.0400974  
H140     H      0.025120000000     0.386820000000     0.637940000000     0.179144   
H141     H      0.044360000000     0.573330000000     0.223730000000     0.0461527  
H142     H      0.051640000000     0.517750000000     0.331270000000     0.0373952  
H143     H      0.942400000000     0.538240000000     0.324740000000     0.0371325  
H144     H      0.057930000000     0.506880000000     0.123170000000     0.0434939  
H145     H      0.030400000000     0.484540000000     0.379960000000     0.0512615  
H146     H      0.989930000000     0.582930000000     0.168190000000     0.0373937  
H147     H      0.032490000000     0.479260000000     0.175060000000     0.0396157  
H148     H      0.985740000000     0.577200000000     0.102000000000     0.0462434  
H149     H      0.940220000000     0.540730000000     0.392180000000     0.062854   
H150     H      0.036640000000     0.571460000000     0.287970000000     0.0420853  
H151     H      0.047850000000     0.524350000000     0.398380000000     0.0424063  
H152     H      0.964850000000     0.492910000000     0.211680000000     0.0439288  
H153     H      0.033310000000     0.558700000000     0.347590000000     0.0359255  
H154     H      0.028620000000     0.472530000000     0.109210000000     0.0527986  
H155     H      0.963520000000     0.545720000000     0.154500000000     0.0425713  
H156     H      0.988590000000     0.484960000000     0.157770000000     0.0410846  
H157     H      0.959750000000     0.488370000000     0.276010000000     0.0529776  
H158     H      0.971760000000     0.569250000000     0.345010000000     0.0341174  
H159     H      0.030040000000     0.575720000000     0.118580000000     0.0418769  
H160     H      0.951630000000     0.436110000000     0.360320000000     0.179796   
H161     H      0.219930000000     0.024660000000     0.456480000000     0.049095   
H162     H      0.321230000000     0.929300000000     0.484790000000     0.038513   
H163     H      0.319420000000     0.029610000000     0.535450000000     0.0394896  
H164     H      0.119350000000     0.008470000000     0.444180000000     0.0497987  
H165     H      0.371500000000     0.930380000000     0.524190000000     0.0550065  
H166     H      0.165180000000     0.016090000000     0.547560000000     0.0394589  
H167     H      0.167580000000     0.967170000000     0.446450000000     0.0377109  
H168     H      0.099060000000     0.011510000000     0.548060000000     0.0479921  
H169     H      0.384870000000     0.034720000000     0.525980000000     0.0699083  
H170     H      0.283410000000     0.016480000000     0.462020000000     0.0464386  
H171     H      0.386740000000     0.932630000000     0.479220000000     0.0446663  
H172     H      0.203270000000     0.948700000000     0.540200000000     0.0451597  
H173     H      0.335990000000     0.967980000000     0.461040000000     0.0433628  
H174     H      0.101680000000     0.964440000000     0.446030000000     0.0458127  
H175     H      0.148060000000     0.971860000000     0.542000000000     0.0443396  
H176     H      0.149510000000     0.943930000000     0.483990000000     0.0429102  
H177     H      0.266850000000     0.942980000000     0.547870000000     0.0530841  
H178     H      0.334950000000     0.026210000000     0.490610000000     0.0392474  
H179     H      0.116690000000     0.042000000000     0.516390000000     0.0436967  
H180     H      0.355030000000     0.966170000000     0.606540000000     0.180011   
H181     H      0.714060000000     0.968000000000     0.436520000000     0.0449889  
H182     H      0.816480000000     0.994580000000     0.535040000000     0.0356901  
H183     H      0.823420000000     0.026330000000     0.427360000000     0.0374442  
H184     H      0.617220000000     0.955540000000     0.455810000000     0.0399601  
H185     H      0.869150000000     0.029790000000     0.531480000000     0.0521982  
H186     H      0.659110000000     0.059670000000     0.465850000000     0.036756   
H187     H      0.670070000000     0.950700000000     0.490840000000     0.0351135  
H188     H      0.594110000000     0.055730000000     0.479290000000     0.0429818  
H189     H      0.888540000000     0.011130000000     0.428720000000     0.0667539  
H190     H      0.777830000000     0.969930000000     0.440360000000     0.0420857  
H191     H      0.881440000000     0.984260000000     0.536680000000     0.0402669  
H192     H      0.706870000000     0.046560000000     0.519290000000     0.0421596  
H193     H      0.831370000000     0.963970000000     0.501650000000     0.0380935  
H194     H      0.605510000000     0.946010000000     0.500940000000     0.0418841  
H195     H      0.648320000000     0.043850000000     0.509720000000     0.0382881  
H196     H      0.654340000000     0.981430000000     0.523730000000     0.0397971  
H197     H      0.770720000000     0.051030000000     0.520640000000     0.0499048  
H198     H      0.835450000000     0.982150000000     0.440320000000     0.0319031  
H199     H      0.608050000000     0.032510000000     0.440390000000     0.03829    
H200     H      0.863660000000     0.106090000000     0.478560000000     0.178515   
H201     H      0.943700000000     0.724140000000     0.562960000000     0.0452636  
H202     H      0.970840000000     0.818850000000     0.456900000000     0.0360004  
H203     H      0.009050000000     0.830170000000     0.561910000000     0.0375948  
H204     H      0.932570000000     0.620840000000     0.548510000000     0.0388201  
H205     H      0.009230000000     0.869400000000     0.454470000000     0.0529047  
H206     H      0.032670000000     0.667710000000     0.548380000000     0.0373678  
H207     H      0.928510000000     0.671090000000     0.508420000000     0.0356248  
H208     H      0.033160000000     0.601560000000     0.543120000000     0.0433907  
H209     H      0.998760000000     0.896600000000     0.556960000000     0.0662988  
H210     H      0.947670000000     0.787860000000     0.552810000000     0.0420345  
H211     H      0.964850000000     0.884930000000     0.451690000000     0.0405501  
H212     H      0.020660000000     0.706380000000     0.480960000000     0.0426445  
H213     H      0.943680000000     0.838170000000     0.490880000000     0.0378622  
H214     H      0.927460000000     0.605220000000     0.503730000000     0.0424127  
H215     H      0.024260000000     0.651800000000     0.503980000000     0.0398766  
H216     H      0.963190000000     0.654260000000     0.480550000000     0.0404236  
H217     H      0.027190000000     0.770220000000     0.473300000000     0.0505328  
H218     H      0.965580000000     0.844820000000     0.550560000000     0.0319968  
H219     H      0.001460000000     0.618110000000     0.574090000000     0.0374684  
H220     H      0.087810000000     0.862130000000     0.503200000000     0.178576   
H221     H      0.966120000000     0.277460000000     0.420000000000     0.0470267  
H222     H      0.981060000000     0.178320000000     0.522990000000     0.0366333  
H223     H      0.025900000000     0.166650000000     0.420690000000     0.0391977  
H224     H      0.949110000000     0.377120000000     0.443010000000     0.0426303  
H225     H      0.016690000000     0.125860000000     0.526880000000     0.0526878  
H226     H      0.051170000000     0.334690000000     0.453730000000     0.0387802  
H227     H      0.942620000000     0.322460000000     0.476130000000     0.036755   
H228     H      0.047000000000     0.399700000000     0.467010000000     0.0462569  
H229     H      0.010640000000     0.100710000000     0.423470000000     0.0707941  
H230     H      0.968870000000     0.213130000000     0.425010000000     0.0447512  
H231     H      0.971380000000     0.112970000000     0.526640000000     0.0434192  
H232     H      0.033410000000     0.287330000000     0.511500000000     0.0442699  
H233     H      0.955500000000     0.161120000000     0.486680000000     0.0422785  
H234     H      0.937260000000     0.387170000000     0.488060000000     0.0438945  
H235     H      0.035050000000     0.344800000000     0.497660000000     0.0425345  
H236     H      0.971960000000     0.337270000000     0.510600000000     0.0421892  
H237     H      0.038910000000     0.223130000000     0.514360000000     0.0510549  
H238     H      0.980910000000     0.154730000000     0.428650000000     0.03771    
H239     H      0.022200000000     0.386020000000     0.429040000000     0.041043   
H240     H      0.098590000000     0.127710000000     0.483040000000     0.179792   
N1       N      0.891010000000     0.516340000000     0.016870000000    -0.16007    
N2       N      0.817060000000     0.516530000000     0.022000000000    -0.10783    
N3       N      0.669170000000     0.498440000000     0.005250000000    -0.112588   
N4       N      0.595430000000     0.499810000000     0.001280000000    -0.171551   
N5       N      0.094510000000     0.503800000000     0.989570000000    -0.159302   
N6       N      0.168300000000     0.501960000000     0.992480000000    -0.108913   
N7       N      0.316720000000     0.484540000000     0.982180000000    -0.112777   
N8       N      0.390530000000     0.487300000000     0.986110000000    -0.171908   
N9       N      0.493490000000     0.895500000000     0.025700000000    -0.160175   
N10      N      0.486930000000     0.821560000000     0.036070000000    -0.107589   
N11      N      0.474480000000     0.671570000000     0.017860000000    -0.112399   
N12      N      0.483370000000     0.597980000000     0.008660000000    -0.17129    
N13      N      0.508180000000     0.094220000000     0.966720000000    -0.160379   
N14      N      0.508960000000     0.168470000000     0.956570000000    -0.107458   
N15      N      0.496160000000     0.318790000000     0.971460000000    -0.112238   
N16      N      0.498940000000     0.392840000000     0.979390000000    -0.17133    
N17      N      0.500330000000     0.981560000000     0.598870000000    -0.157201   
N18      N      0.495550000000     0.974080000000     0.672790000000    -0.108663   
N19      N      0.500160000000     0.956230000000     0.823160000000    -0.112253   
N20      N      0.499310000000     0.965720000000     0.897230000000    -0.170901   
N21      N      0.479380000000     0.997880000000     0.392940000000    -0.160538   
N22      N      0.475200000000     0.005320000000     0.318640000000    -0.107548   
N23      N      0.496970000000     0.029580000000     0.170780000000    -0.112525   
N24      N      0.502070000000     0.024270000000     0.096520000000    -0.171186   
N25      N      0.978970000000     0.472830000000     0.601470000000    -0.15987    
N26      N      0.972950000000     0.463600000000     0.675640000000    -0.107616   
N27      N      0.963040000000     0.482960000000     0.825810000000    -0.112519   
N28      N      0.974840000000     0.493780000000     0.898850000000    -0.171455   
N29      N      0.991610000000     0.519660000000     0.399270000000    -0.158483   
N30      N      0.996280000000     0.522600000000     0.325010000000    -0.108956   
N31      N      0.014030000000     0.532540000000     0.175190000000    -0.112659   
N32      N      0.010900000000     0.526260000000     0.100860000000    -0.170352   
N33      N      0.391080000000     0.980710000000     0.509390000000    -0.158265   
N34      N      0.317150000000     0.977610000000     0.513490000000    -0.107231   
N35      N      0.169640000000     0.995460000000     0.495190000000    -0.111426   
N36      N      0.095850000000     0.995600000000     0.493310000000    -0.167949   
N37      N      0.890710000000     0.006670000000     0.485240000000    -0.160064   
N38      N      0.817180000000     0.015200000000     0.482460000000    -0.107968   
N39      N      0.667550000000     0.004470000000     0.473780000000    -0.112432   
N40      N      0.594370000000     0.998820000000     0.482870000000    -0.171731   
N41      N      0.991430000000     0.895570000000     0.500700000000    -0.160241   
N42      N      0.994500000000     0.821520000000     0.507980000000    -0.108285   
N43      N      0.979570000000     0.672990000000     0.531320000000    -0.113036   
N44      N      0.978810000000     0.598670000000     0.526860000000    -0.172429   
N45      N      0.000330000000     0.101360000000     0.479190000000    -0.158082   
N46      N      0.008270000000     0.175160000000     0.473690000000    -0.107896   
N47      N      0.996460000000     0.325420000000     0.461090000000    -0.11238    
N48      N      0.990640000000     0.398710000000     0.473260000000    -0.170658   
Ni1      Ni     0.994240000000     0.995150000000     0.458340000000     1.00644    
Ni2      Ni     0.992000000000     0.001930000000     0.520880000000     1.00735    
Ni3      Ni     0.015940000000     0.499750000000     0.503110000000     1.01012    
Ni4      Ni     0.953680000000     0.497230000000     0.498510000000     1.00286    
Ni5      Ni     0.495190000000     0.958630000000     0.492840000000     1.00599    
Ni6      Ni     0.490060000000     0.021130000000     0.498470000000     1.00845    
Ni7      Ni     0.531950000000     0.992640000000     0.997180000000     0.996483   
Ni8      Ni     0.469720000000     0.997520000000     0.996520000000     1.00719    
Ni9      Ni     0.991330000000     0.478920000000     0.005450000000     1.00765    
Ni10     Ni     0.993470000000     0.540920000000     0.994650000000     1.00065    
Ni11     Ni     0.494770000000     0.500360000000     0.962920000000     0.994788   
Ni12     Ni     0.490910000000     0.490710000000     0.025100000000     0.998793   
O1       O      0.999690000000     0.045480000000     0.455310000000    -0.440018   
O2       O      0.988880000000     0.945220000000     0.465730000000    -0.448529   
O3       O      0.944300000000     0.000880000000     0.458130000000    -0.444859   
O4       O      0.044090000000     0.990220000000     0.462760000000    -0.444927   
O5       O      0.042320000000     0.002320000000     0.520410000000    -0.444486   
O6       O      0.941810000000     0.001290000000     0.517020000000    -0.448562   
O7       O      0.992670000000     0.951460000000     0.524220000000    -0.447181   
O8       O      0.991760000000     0.051970000000     0.513350000000    -0.449637   
O9       O      0.016770000000     0.450810000000     0.489920000000    -0.447211   
O10      O      0.010980000000     0.548550000000     0.515900000000    -0.45166    
O11      O      0.010890000000     0.487180000000     0.551970000000    -0.443093   
O12      O      0.017000000000     0.511910000000     0.453890000000    -0.450623   
O13      O      0.958830000000     0.509650000000     0.449440000000    -0.440946   
O14      O      0.952730000000     0.484750000000     0.547860000000    -0.448074   
O15      O      0.952890000000     0.546440000000     0.510510000000    -0.451287   
O16      O      0.958540000000     0.448210000000     0.486670000000    -0.447295   
O17      O      0.544830000000     0.965020000000     0.489150000000    -0.451384   
O18      O      0.444950000000     0.956370000000     0.496940000000    -0.443344   
O19      O      0.490840000000     0.964840000000     0.442640000000    -0.449582   
O20      O      0.499440000000     0.956630000000     0.543390000000    -0.442538   
O21      O      0.497140000000     0.015260000000     0.548340000000    -0.446862   
O22      O      0.482460000000     0.022810000000     0.448320000000    -0.445483   
O23      O      0.440920000000     0.014420000000     0.505880000000    -0.442467   
O24      O      0.539850000000     0.023650000000     0.490810000000    -0.449867   
O25      O      0.530320000000     0.005370000000     0.046300000000    -0.449445   
O26      O      0.529380000000     0.979670000000     0.948100000000    -0.448606   
O27      O      0.533560000000     0.041950000000     0.984540000000    -0.446405   
O28      O      0.526200000000     0.943910000000     0.009720000000    -0.448995   
O29      O      0.468150000000     0.949210000000     0.012510000000    -0.442595   
O30      O      0.475420000000     0.045200000000     0.980450000000    -0.446006   
O31      O      0.471050000000     0.981960000000     0.948320000000    -0.448696   
O32      O      0.472520000000     0.013310000000     0.044700000000    -0.447273   
O33      O      0.001380000000     0.488950000000     0.054060000000    -0.446421   
O34      O      0.981640000000     0.473000000000     0.955770000000    -0.449033   
O35      O      0.040680000000     0.477650000000     0.996570000000    -0.446826   
O36      O      0.942190000000     0.484380000000     0.014540000000    -0.451083   
O37      O      0.943510000000     0.541640000000     0.001000000000    -0.439993   
O38      O      0.043310000000     0.535960000000     0.988800000000    -0.446326   
O39      O      0.987090000000     0.530680000000     0.945450000000    -0.450386   
O40      O      0.999660000000     0.547080000000     0.044850000000    -0.443391   
O41      O      0.444520000000     0.498200000000     0.961470000000    -0.449352   
O42      O      0.544750000000     0.502250000000     0.968490000000    -0.44937    
O43      O      0.496840000000     0.449710000000     0.957580000000    -0.446854   
O44      O      0.492290000000     0.550080000000     0.972390000000    -0.449554   
O45      O      0.485720000000     0.541080000000     0.030260000000    -0.448195   
O46      O      0.496210000000     0.441220000000     0.015910000000    -0.450399   
O47      O      0.540980000000     0.495100000000     0.026880000000    -0.450019   
O48      O      0.441150000000     0.486190000000     0.019070000000    -0.449935   
O49      O      0.853740000000     0.567120000000     0.067820000000    -0.338216   
O50      O      0.889000000000     0.601700000000     0.035910000000    -0.24718    
O51      O      0.124340000000     0.505050000000     0.061080000000    -0.336543   
O52      O      0.100230000000     0.451360000000     0.063340000000    -0.25212    
O53      O      0.482950000000     0.864480000000     0.101240000000    -0.337403   
O54      O      0.446100000000     0.909920000000     0.095770000000    -0.249098   
O55      O      0.508650000000     0.127970000000     0.890510000000    -0.337646   
O56      O      0.471040000000     0.082840000000     0.891130000000    -0.250341   
O57      O      0.438910000000     0.944010000000     0.622380000000    -0.329004   
O58      O      0.467630000000     0.895810000000     0.604590000000    -0.249036   
O59      O      0.407330000000     0.999620000000     0.356130000000    -0.336703   
O60      O      0.403810000000     0.038670000000     0.400220000000    -0.247758   
O61      O      0.014050000000     0.409870000000     0.638420000000    -0.337884   
O62      O      0.057040000000     0.435040000000     0.607370000000    -0.246674   
O63      O      0.961960000000     0.459240000000     0.363860000000    -0.336488   
O64      O      0.910450000000     0.484290000000     0.376250000000    -0.250777   
O65      O      0.354360000000     0.972390000000     0.581670000000    -0.335693   
O66      O      0.392400000000     0.016630000000     0.588450000000    -0.244457   
O67      O      0.861550000000     0.080580000000     0.477780000000    -0.33667    
O68      O      0.896560000000     0.075890000000     0.430720000000    -0.248189   
O69      O      0.062500000000     0.862140000000     0.505390000000    -0.336437   
O70      O      0.063300000000     0.898040000000     0.552220000000    -0.24904    
O71      O      0.073500000000     0.129500000000     0.479440000000    -0.336163   
O72      O      0.074660000000     0.095200000000     0.431420000000    -0.247777   


