data_structure

_audit_creation_method RASPA-1.0
_audit_creation_date 2023-6-5
_audit_author_name 'Poobodin Mano'

_cell_length_a    61.7492
_cell_length_b    60.4677
_cell_length_c    37.5743
_cell_angle_alpha 89.9449
_cell_angle_beta  90.0546
_cell_angle_gamma 119.909
_cell_volume      121611

_symmetry_cell_setting          triclinic
_symmetry_space_group_name_Hall 'P 1'
_symmetry_space_group_name_H-M  'P 1'
_symmetry_Int_Tables_number     1

_symmetry_equiv_pos_as_xyz 'x,y,z'

loop_
_atom_site_label
_atom_site_type_symbol
_atom_site_fract_x
_atom_site_fract_y
_atom_site_fract_z
_atom_site_charge
C1       C      0.857320000000     0.673170000000     0.570350000000     0.42569    
C2       C      0.824690000000     0.663200000000     0.698080000000     0.424902   
C3       C      0.796480000000     0.646650000000     0.609530000000     0.426288   
C4       C      0.885470000000     0.689580000000     0.659020000000     0.426079   
C5       C      0.167750000000     0.832280000000     0.870380000000     0.425704   
C6       C      0.187590000000     0.849720000000     0.737810000000     0.425429   
C7       C      0.223920000000     0.866470000000     0.820710000000     0.425801   
C8       C      0.131360000000     0.815720000000     0.787670000000     0.425772   
C9       C      0.523360000000     0.015250000000     0.893830000000     0.426078   
C10      C      0.510170000000     0.017620000000     0.027830000000     0.426161   
C11      C      0.469930000000     0.994850000000     0.948960000000     0.425725   
C12      C      0.563980000000     0.037950000000     0.971600000000     0.427458   
C13      C      0.166760000000     0.340490000000     0.372550000000     0.431995   
C14      C      0.187560000000     0.363120000000     0.241770000000     0.429514   
C15      C      0.224020000000     0.374600000000     0.322170000000     0.428572   
C16      C      0.130840000000     0.329350000000     0.292710000000     0.428048   
C17      C      0.852360000000     0.193510000000     0.071770000000     0.429109   
C18      C      0.838980000000     0.177310000000     0.205420000000     0.428326   
C19      C      0.798110000000     0.157930000000     0.128170000000     0.427825   
C20      C      0.892300000000     0.212280000000     0.148440000000     0.428441   
C21      C      0.500760000000     0.504640000000     0.438280000000     0.430138   
C22      C      0.492080000000     0.489860000000     0.572270000000     0.429001   
C23      C      0.448860000000     0.473370000000     0.498210000000     0.428738   
C24      C      0.543790000000     0.520970000000     0.513120000000     0.42635    
C25      C      0.190970000000     0.359810000000     0.740270000000     0.4309     
C26      C      0.199440000000     0.372770000000     0.874520000000     0.429846   
C27      C      0.221300000000     0.343750000000     0.809860000000     0.429551   
C28      C      0.169770000000     0.388550000000     0.804840000000     0.429276   
C29      C      0.350090000000     0.188110000000     0.702280000000     0.428527   
C30      C      0.349800000000     0.201550000000     0.568210000000     0.427986   
C31      C      0.331140000000     0.223530000000     0.645930000000     0.428975   
C32      C      0.368720000000     0.166290000000     0.623380000000     0.426959   
C33      C      0.030140000000     0.535210000000     0.933200000000     0.429825   
C34      C      0.043810000000     0.522780000000     0.064000000000     0.42729    
C35      C      0.059040000000     0.504270000000     0.979770000000     0.428863   
C36      C      0.015380000000     0.553260000000     0.017990000000     0.42797    
C37      C      0.651160000000     0.845890000000     0.201060000000     0.426485   
C38      C      0.661190000000     0.819730000000     0.326940000000     0.426647   
C39      C      0.670790000000     0.803830000000     0.236800000000     0.428193   
C40      C      0.641650000000     0.861890000000     0.291380000000     0.427791   
C41      C      0.845090000000     0.669970000000     0.199910000000     0.424029   
C42      C      0.824780000000     0.670070000000     0.067660000000     0.424892   
C43      C      0.803520000000     0.683620000000     0.151070000000     0.427621   
C44      C      0.866750000000     0.656410000000     0.116270000000     0.427784   
C45      C      0.522620000000     0.011770000000     0.524280000000     0.428036   
C46      C      0.499260000000     0.023570000000     0.397910000000     0.425317   
C47      C      0.486180000000     0.037660000000     0.488080000000     0.427119   
C48      C      0.535060000000     0.998030000000     0.434710000000     0.427527   
C49      C      0.354640000000     0.190400000000     0.197920000000     0.427623   
C50      C      0.348560000000     0.162760000000     0.068300000000     0.429622   
C51      C      0.330420000000     0.130440000000     0.153580000000     0.426913   
C52      C      0.373150000000     0.223650000000     0.113770000000     0.427089   
C53      C      0.522080000000     0.522460000000     0.935850000000     0.43048    
C54      C      0.521400000000     0.535230000000     0.069750000000     0.430927   
C55      C      0.544920000000     0.576790000000     0.993310000000     0.429129   
C56      C      0.498240000000     0.480160000000     0.011540000000     0.427373   
C57      C      0.193650000000     0.850370000000     0.367610000000     0.426912   
C58      C      0.174440000000     0.816430000000     0.240100000000     0.42743    
C59      C      0.160900000000     0.787690000000     0.328030000000     0.427436   
C60      C      0.207020000000     0.878700000000     0.279140000000     0.426686   
C61      C      0.028880000000     0.507430000000     0.568940000000     0.429531   
C62      C      0.039870000000     0.520620000000     0.434520000000     0.428597   
C63      C      0.013600000000     0.465670000000     0.493230000000     0.428846   
C64      C      0.054930000000     0.562220000000     0.509640000000     0.428943   
C65      C      0.846240000000     0.189860000000     0.702050000000     0.427738   
C66      C      0.824540000000     0.160910000000     0.572980000000     0.429675   
C67      C      0.804590000000     0.131030000000     0.659620000000     0.427613   
C68      C      0.867090000000     0.220810000000     0.616240000000     0.427456   
C69      C      0.653630000000     0.832800000000     0.832050000000     0.424971   
C70      C      0.656910000000     0.823590000000     0.696980000000     0.425039   
C71      C      0.638130000000     0.780350000000     0.773090000000     0.428972   
C72      C      0.672420000000     0.875910000000     0.755460000000     0.427008   
C73      C      0.779540000000     0.063480000000     0.686550000000    -0.0304331  
C74      C      0.676640000000     0.939630000000     0.741190000000    -0.0306694  
C75      C      0.708730000000     0.916880000000     0.739380000000    -0.00462565 
C76      C      0.664410000000     0.910530000000     0.738650000000    -0.00485872 
C77      C      0.719000000000     0.995770000000     0.747140000000    -0.0568254  
C78      C      0.730120000000     0.014680000000     0.677550000000    -0.0562595  
C79      C      0.711670000000     0.978690000000     0.718270000000     0.0612269  
C80      C      0.718240000000     0.945420000000     0.742080000000    -0.0305846  
C81      C      0.738660000000     0.031750000000     0.706470000000     0.0608805  
C82      C      0.744940000000     0.071460000000     0.680680000000    -0.0309094  
C83      C      0.732480000000     0.022080000000     0.741160000000    -0.0540013  
C84      C      0.762430000000     0.100450000000     0.681970000000    -0.00493988 
C85      C      0.798610000000     0.091860000000     0.688420000000    -0.00504271 
C86      C      0.716810000000     0.988370000000     0.683540000000    -0.0544431  
C87      C      0.963270000000     0.401760000000     0.506970000000    -0.0306792  
C88      C      0.925190000000     0.274960000000     0.578280000000    -0.0305813  
C89      C      0.876460000000     0.264750000000     0.603960000000    -0.0050535  
C90      C      0.911030000000     0.253400000000     0.605110000000    -0.00536495 
C91      C      0.936360000000     0.317890000000     0.526320000000    -0.0565373  
C92      C      0.961790000000     0.364020000000     0.563440000000    -0.0564777  
C93      C      0.934610000000     0.318000000000     0.563690000000     0.0610272  
C94      C      0.892180000000     0.285550000000     0.576940000000    -0.0305696  
C95      C      0.963600000000     0.363940000000     0.526070000000     0.0610317  
C96      C      0.003130000000     0.403060000000     0.515990000000    -0.0309813  
C97      C      0.950860000000     0.340700000000     0.507800000000    -0.0544153  
C98      C      0.016430000000     0.426070000000     0.490960000000    -0.00536708 
C99      C      0.975370000000     0.424280000000     0.481240000000    -0.00496154 
C100     C      0.947530000000     0.341200000000     0.581970000000    -0.054138   
C101     C      0.060640000000     0.620370000000     0.480070000000    -0.0309274  
C102     C      0.152340000000     0.731070000000     0.377040000000    -0.0305461  
C103     C      0.121160000000     0.749690000000     0.345890000000    -0.00553152 
C104     C      0.161460000000     0.748290000000     0.344160000000    -0.00545447 
C105     C      0.118220000000     0.702230000000     0.440450000000    -0.0564684  
C106     C      0.094490000000     0.651220000000     0.418660000000    -0.0565405  
C107     C      0.115480000000     0.696330000000     0.403880000000     0.0609021  
C108     C      0.113600000000     0.732300000000     0.378600000000    -0.0305159  
C109     C      0.097000000000     0.657080000000     0.455250000000     0.0610808  
C110     C      0.101770000000     0.623360000000     0.482090000000    -0.0308269  
C111     C      0.108960000000     0.682700000000     0.465830000000    -0.0545119  
C112     C      0.093430000000     0.604660000000     0.513380000000    -0.00517979 
C113     C      0.051540000000     0.601490000000     0.511210000000    -0.00494357 
C114     C      0.103610000000     0.670730000000     0.393310000000    -0.0540711  
C115     C      0.595560000000     0.722640000000     0.816250000000    -0.0305888  
C116     C      0.592280000000     0.631810000000     0.949030000000    -0.0308011  
C117     C      0.543900000000     0.616620000000     0.981030000000    -0.00522244 
C118     C      0.584790000000     0.617460000000     0.984550000000    -0.00517852 
C119     C      0.598910000000     0.689260000000     0.917310000000    -0.0542545  
C120     C      0.593030000000     0.668580000000     0.849060000000    -0.0544103  
C121     C      0.588040000000     0.662810000000     0.913250000000     0.0610704  
C122     C      0.552160000000     0.630810000000     0.945500000000    -0.0305764  
C123     C      0.603920000000     0.695020000000     0.853120000000     0.0612094  
C124     C      0.638200000000     0.729850000000     0.821370000000    -0.0308645  
C125     C      0.606730000000     0.705290000000     0.887580000000    -0.0565158  
C126     C      0.645410000000     0.744230000000     0.785870000000    -0.00506669 
C127     C      0.601850000000     0.736700000000     0.780560000000    -0.00518906 
C128     C      0.585060000000     0.652530000000     0.878780000000    -0.0564361  
C129     C      0.320110000000     0.066160000000     0.180610000000    -0.0306832  
C130     C      0.220130000000     0.943260000000     0.249520000000    -0.0307306  
C131     C      0.245530000000     0.913550000000     0.253030000000    -0.00498013 
C132     C      0.204510000000     0.914140000000     0.250910000000    -0.00516455 
C133     C      0.262400000000     0.985760000000     0.187980000000    -0.0544629  
C134     C      0.278710000000     0.022500000000     0.241830000000    -0.053996   
C135     C      0.257550000000     0.977970000000     0.223600000000     0.0610773  
C136     C      0.259020000000     0.942690000000     0.251710000000    -0.0306302  
C137     C      0.283360000000     0.030290000000     0.206190000000     0.0609022  
C138     C      0.280200000000     0.064440000000     0.177640000000    -0.0303855  
C139     C      0.275220000000     0.011680000000     0.179210000000    -0.0564233  
C140     C      0.292320000000     0.093480000000     0.176600000000    -0.00506324 
C141     C      0.334600000000     0.095360000000     0.179590000000    -0.00507283 
C142     C      0.265960000000     0.996580000000     0.250600000000    -0.0568044  
C143     C      0.446190000000     0.415170000000     0.031930000000    -0.0306759  
C144     C      0.423060000000     0.288330000000     0.084790000000    -0.0306032  
C145     C      0.369770000000     0.261840000000     0.101200000000    -0.00532579 
C146     C      0.412220000000     0.264720000000     0.108610000000    -0.00501796 
C147     C      0.425060000000     0.329900000000     0.036320000000    -0.0566406  
C148     C      0.442350000000     0.372670000000     0.080470000000    -0.0565967  
C149     C      0.421120000000     0.326620000000     0.073320000000     0.0609528  
C150     C      0.382900000000     0.285730000000     0.077860000000    -0.0305377  
C151     C      0.446460000000     0.375970000000     0.043500000000     0.0609166  
C152     C      0.485570000000     0.415940000000     0.039760000000    -0.0307055  
C153     C      0.437640000000     0.354410000000     0.021650000000    -0.0542907  
C154     C      0.499650000000     0.440200000000     0.017380000000    -0.0052833  
C155     C      0.458410000000     0.439330000000     0.009100000000    -0.00511609 
C156     C      0.429800000000     0.348170000000     0.095130000000    -0.0542373  
C157     C      0.641280000000     0.800970000000     0.418560000000    -0.0309129  
C158     C      0.681460000000     0.822480000000     0.605910000000    -0.0304155  
C159     C      0.636700000000     0.818330000000     0.638650000000    -0.00504078 
C160     C      0.683180000000     0.832610000000     0.643750000000    -0.00554551 
C161     C      0.663020000000     0.838180000000     0.523920000000    -0.0539217  
C162     C      0.663640000000     0.795270000000     0.497680000000    -0.0541164  
C163     C      0.662790000000     0.820290000000     0.547890000000     0.060617   
C164     C      0.637470000000     0.808540000000     0.601340000000    -0.0306642  
C165     C      0.664520000000     0.813500000000     0.473730000000     0.0606105  
C166     C      0.685940000000     0.831560000000     0.417550000000    -0.0307581  
C167     C      0.663580000000     0.834750000000     0.487180000000    -0.0563761  
C168     C      0.688090000000     0.824630000000     0.378990000000    -0.00568701 
C169     C      0.642020000000     0.792700000000     0.380250000000    -0.00525476 
C170     C      0.662490000000     0.798400000000     0.534410000000    -0.0563506  
C171     C      0.629600000000     0.835350000000     0.922750000000    -0.0305792  
C172     C      0.671130000000     0.863040000000     0.109440000000    -0.0308451  
C173     C      0.624290000000     0.840730000000     0.148850000000    -0.00574762 
C174     C      0.670400000000     0.872270000000     0.147190000000    -0.00536896 
C175     C      0.648510000000     0.866430000000     0.029030000000    -0.0542337  
C176     C      0.649040000000     0.822740000000     0.006120000000    -0.0538718  
C177     C      0.647870000000     0.849050000000     0.054320000000     0.0606471  
C178     C      0.626360000000     0.832720000000     0.110890000000    -0.0307194  
C179     C      0.649000000000     0.839760000000     0.980810000000     0.0603886  
C180     C      0.673740000000     0.849800000000     0.926950000000    -0.030853   
C181     C      0.649360000000     0.862060000000     0.992610000000    -0.0562791  
C182     C      0.674160000000     0.838880000000     0.890340000000    -0.00488998 
C183     C      0.627630000000     0.824080000000     0.885610000000    -0.00547442 
C184     C      0.648770000000     0.827410000000     0.042540000000    -0.0564378  
C185     C      0.743170000000     0.682180000000     0.167310000000    -0.0307689  
C186     C      0.714650000000     0.782420000000     0.209820000000    -0.030647   
C187     C      0.660790000000     0.761820000000     0.212190000000    -0.00489114 
C188     C      0.704070000000     0.800300000000     0.205700000000    -0.00486532 
C189     C      0.716070000000     0.733820000000     0.224320000000    -0.0565351  
C190     C      0.726760000000     0.722190000000     0.156850000000    -0.056537   
C191     C      0.707880000000     0.740990000000     0.193710000000     0.0611025  
C192     C      0.673150000000     0.745350000000     0.215730000000    -0.030967   
C193     C      0.736030000000     0.716180000000     0.187410000000     0.0611334  
C194     C      0.777120000000     0.725960000000     0.168490000000    -0.0304823  
C195     C      0.730060000000     0.721560000000     0.221060000000    -0.0541709  
C196     C      0.796710000000     0.717880000000     0.173220000000    -0.0049206  
C197     C      0.761140000000     0.671770000000     0.171680000000    -0.00501835 
C198     C      0.712850000000     0.734550000000     0.160100000000    -0.0542825  
C199     C      0.599250000000     0.884520000000     0.325020000000    -0.0306196  
C200     C      0.587790000000     0.989320000000     0.403250000000    -0.0310847  
C201     C      0.533270000000     0.961060000000     0.404800000000    -0.0050311  
C202     C      0.573650000000     0.004060000000     0.406440000000    -0.00462857 
C203     C      0.595460000000     0.942810000000     0.399350000000    -0.0566331  
C204     C      0.600580000000     0.935350000000     0.327050000000    -0.0564621  
C205     C      0.586440000000     0.953080000000     0.373480000000     0.0611533  
C206     C      0.549430000000     0.948600000000     0.401900000000    -0.030429   
C207     C      0.608740000000     0.924260000000     0.352920000000     0.0609779  
C208     C      0.641420000000     0.920400000000     0.322750000000    -0.0307225  
C209     C      0.606450000000     0.928470000000     0.389020000000    -0.0541772  
C210     C      0.652700000000     0.902960000000     0.319610000000    -0.00489309 
C211     C      0.608220000000     0.865200000000     0.322010000000    -0.00495077 
C212     C      0.589460000000     0.949560000000     0.337380000000    -0.054289   
C213     C      0.003310000000     0.513980000000     0.845490000000    -0.0306646  
C214     C      0.046970000000     0.519010000000     0.662830000000    -0.0308778  
C215     C      0.000980000000     0.493180000000     0.621430000000    -0.00497154 
C216     C      0.046640000000     0.506330000000     0.627460000000    -0.00466144 
C217     C      0.022760000000     0.535990000000     0.724170000000    -0.056441   
C218     C      0.024290000000     0.505360000000     0.778820000000    -0.0565383  
C219     C      0.022590000000     0.513200000000     0.715730000000     0.0611262  
C220     C      0.002890000000     0.505940000000     0.657300000000    -0.0307178  
C221     C      0.022840000000     0.527280000000     0.787290000000     0.0611152  
C222     C      0.047290000000     0.546700000000     0.840210000000    -0.0308604  
C223     C      0.022490000000     0.542670000000     0.759680000000    -0.0543304  
C224     C      0.046600000000     0.558170000000     0.876230000000    -0.00484627 
C225     C      0.001380000000     0.524210000000     0.881800000000    -0.00489074 
C226     C      0.023770000000     0.498250000000     0.743340000000    -0.0543828  
C227     C      0.070910000000     0.534870000000     0.156800000000    -0.0307022  
C228     C      0.067030000000     0.527640000000     0.343940000000    -0.0307432  
C229     C      0.023210000000     0.525240000000     0.377220000000    -0.00432535 
C230     C      0.068360000000     0.535340000000     0.382990000000    -0.00510495 
C231     C      0.049580000000     0.549600000000     0.265520000000    -0.054425   
C232     C      0.049030000000     0.507820000000     0.232740000000    -0.056353   
C233     C      0.050040000000     0.530720000000     0.286560000000     0.0610974  
C234     C      0.023890000000     0.517440000000     0.338780000000    -0.0307789  
C235     C      0.047820000000     0.526510000000     0.211800000000     0.0614652  
C236     C      0.028650000000     0.499930000000     0.159230000000    -0.0303717  
C237     C      0.048360000000     0.547450000000     0.228530000000    -0.0544507  
C238     C      0.023720000000     0.502330000000     0.119950000000    -0.00456163 
C239     C      0.069000000000     0.540680000000     0.117730000000    -0.00390999 
C240     C      0.049470000000     0.509570000000     0.269870000000    -0.0560987  
C241     C      0.894200000000     0.614890000000     0.097000000000    -0.0305853  
C242     C      0.002760000000     0.606510000000     0.036560000000    -0.0306464  
C243     C      0.978060000000     0.551190000000     0.044500000000    -0.00493407 
C244     C      0.018680000000     0.593590000000     0.038380000000    -0.00495567 
C245     C      0.955310000000     0.610880000000     0.032860000000    -0.0565968  
C246     C      0.945800000000     0.620470000000     0.102280000000    -0.0565709  
C247     C      0.965860000000     0.604850000000     0.061910000000     0.0612389  
C248     C      0.964250000000     0.566160000000     0.042090000000    -0.030464   
C249     C      0.934550000000     0.625640000000     0.073280000000     0.0611113  
C250     C      0.927280000000     0.658980000000     0.095810000000    -0.0306897  
C251     C      0.939760000000     0.621150000000     0.038630000000    -0.0542554  
C252     C      0.908720000000     0.668740000000     0.093760000000    -0.00482578 
C253     C      0.873830000000     0.622130000000     0.094980000000    -0.00495145 
C254     C      0.961280000000     0.610100000000     0.096510000000    -0.0542856  
C255     C      0.370320000000     0.168010000000     0.977680000000    -0.0309536  
C256     C      0.328320000000     0.159620000000     0.792470000000    -0.0305216  
C257     C      0.372040000000     0.202290000000     0.759620000000    -0.00439624 
C258     C      0.325390000000     0.169740000000     0.756600000000    -0.0052017  
C259     C      0.349060000000     0.151300000000     0.859640000000    -0.056504   
C260     C      0.350100000000     0.184600000000     0.912100000000    -0.0565902  
C261     C      0.349180000000     0.173820000000     0.849690000000     0.0611035  
C262     C      0.372610000000     0.190120000000     0.795070000000    -0.0307769  
C263     C      0.348240000000     0.161250000000     0.922080000000     0.0611953  
C264     C      0.325790000000     0.154300000000     0.977730000000    -0.0306419  
C265     C      0.348230000000     0.144960000000     0.895590000000    -0.0544953  
C266     C      0.322570000000     0.142760000000     0.014830000000    -0.00482689 
C267     C      0.368350000000     0.156600000000     0.014760000000    -0.0048415  
C268     C      0.350220000000     0.190590000000     0.876190000000    -0.0543061  
C269     C      0.335470000000     0.200850000000     0.289070000000    -0.030405   
C270     C      0.329190000000     0.192930000000     0.472420000000    -0.0306214  
C271     C      0.374780000000     0.220680000000     0.514680000000    -0.00470443 
C272     C      0.328190000000     0.185560000000     0.511460000000    -0.00387071 
C273     C      0.355090000000     0.220480000000     0.399610000000    -0.0563876  
C274     C      0.352790000000     0.178080000000     0.366090000000    -0.0544169  
C275     C      0.354690000000     0.200800000000     0.420210000000     0.0614715  
C276     C      0.372740000000     0.224910000000     0.474970000000    -0.0303468  
C277     C      0.353400000000     0.197650000000     0.345450000000     0.0615062  
C278     C      0.378140000000     0.210120000000     0.291660000000    -0.0305689  
C279     C      0.355030000000     0.219190000000     0.362440000000    -0.0564512  
C280     C      0.377600000000     0.200300000000     0.254110000000    -0.00381073 
C281     C      0.331960000000     0.191260000000     0.250700000000    -0.00458996 
C282     C      0.353530000000     0.179680000000     0.403110000000    -0.0544242  
C283     C      0.433230000000     0.045670000000     0.520640000000    -0.0308239  
C284     C      0.415950000000     0.146080000000     0.602460000000    -0.0305139  
C285     C      0.361790000000     0.124580000000     0.603520000000    -0.00481959 
C286     C      0.405690000000     0.164370000000     0.604660000000    -0.00465711 
C287     C      0.418290000000     0.097220000000     0.597740000000    -0.0566681  
C288     C      0.424710000000     0.091630000000     0.525220000000    -0.0564755  
C289     C      0.409630000000     0.108060000000     0.572220000000     0.0610699  
C290     C      0.374920000000     0.108810000000     0.601370000000    -0.0304941  
C291     C      0.434120000000     0.081520000000     0.550740000000     0.060863   
C292     C      0.471210000000     0.086700000000     0.521380000000    -0.0305406  
C293     C      0.430510000000     0.084150000000     0.586960000000    -0.054208   
C294     C      0.487710000000     0.074630000000     0.517760000000    -0.00508734 
C295     C      0.447680000000     0.031290000000     0.516970000000    -0.00493866 
C296     C      0.412660000000     0.104850000000     0.536000000000    -0.0541351  
C297     C      0.158700000000     0.438350000000     0.832370000000    -0.0308205  
C298     C      0.066020000000     0.454170000000     0.935400000000    -0.0306308  
C299     C      0.098290000000     0.504300000000     0.966380000000    -0.00516227 
C300     C      0.056990000000     0.463030000000     0.967400000000    -0.00532417 
C301     C      0.116200000000     0.443930000000     0.921140000000    -0.0542138  
C302     C      0.108490000000     0.447090000000     0.848380000000    -0.0545775  
C303     C      0.102730000000     0.455650000000     0.909880000000     0.0611156  
C304     C      0.105720000000     0.494050000000     0.934280000000    -0.030548   
C305     C      0.121840000000     0.435230000000     0.859660000000     0.0612824  
C306     C      0.120270000000     0.396920000000     0.837400000000    -0.0307178  
C307     C      0.125770000000     0.433840000000     0.896340000000    -0.0566457  
C308     C      0.128510000000     0.386270000000     0.806670000000    -0.00485881 
C309     C      0.167770000000     0.428520000000     0.801520000000    -0.00509945 
C310     C      0.099050000000     0.457320000000     0.873190000000    -0.056464   
C311     C      0.272020000000     0.336100000000     0.779730000000    -0.0307394  
C312     C      0.285830000000     0.238840000000     0.682550000000    -0.0307695  
C313     C      0.336800000000     0.266710000000     0.655520000000    -0.00526034 
C314     C      0.293680000000     0.228280000000     0.651270000000    -0.00495127 
C315     C      0.292960000000     0.274820000000     0.745140000000    -0.0566495  
C316     C      0.269290000000     0.300970000000     0.720050000000    -0.0565227  
C317     C      0.291250000000     0.277800000000     0.708240000000     0.0612151  
C318     C      0.327510000000     0.276250000000     0.686450000000    -0.0308429  
C319     C      0.271260000000     0.298270000000     0.756970000000     0.0610974  
C320     C      0.233390000000     0.294690000000     0.781210000000    -0.0308048  
C321     C      0.283130000000     0.285120000000     0.769220000000    -0.0544242  
C322     C      0.223140000000     0.303670000000     0.811580000000    -0.0050114  
C323     C      0.262590000000     0.346030000000     0.809960000000    -0.00497683 
C324     C      0.279320000000     0.290890000000     0.696000000000    -0.0544559  
C325     C      0.498470000000     0.467740000000     0.664200000000    -0.0303852  
C326     C      0.533510000000     0.502310000000     0.847700000000    -0.0309733  
C327     C      0.508140000000     0.528050000000     0.877050000000    -0.00475046 
C328     C      0.542230000000     0.516130000000     0.883410000000    -0.00416716 
C329     C      0.499930000000     0.483960000000     0.777970000000    -0.0565498  
C330     C      0.532950000000     0.518260000000     0.727680000000    -0.0542722  
C331     C      0.520280000000     0.507370000000     0.789110000000     0.0616421  
C332     C      0.501360000000     0.513960000000     0.841620000000    -0.0304022  
C333     C      0.511880000000     0.495800000000     0.716260000000     0.0616304  
C334     C      0.487720000000     0.500670000000     0.669960000000    -0.0304339  
C335     C      0.495440000000     0.478470000000     0.741710000000    -0.0563656  
C336     C      0.489240000000     0.506110000000     0.630300000000    -0.00322965 
C337     C      0.498810000000     0.468950000000     0.623420000000    -0.00454258 
C338     C      0.537050000000     0.524060000000     0.763790000000    -0.0547758  
C339     C      0.502780000000     0.492670000000     0.340970000000    -0.030797   
C340     C      0.496450000000     0.524030000000     0.160210000000    -0.0310922  
C341     C      0.545060000000     0.551580000000     0.125800000000    -0.00510146 
C342     C      0.498580000000     0.535530000000     0.123300000000    -0.00391498 
C343     C      0.525290000000     0.518840000000     0.234170000000    -0.0553927  
C344     C      0.498200000000     0.535610000000     0.274310000000    -0.0543012  
C345     C      0.516390000000     0.533810000000     0.217820000000     0.0607753  
C346     C      0.541180000000     0.540310000000     0.163230000000    -0.0308014  
C347     C      0.507390000000     0.521160000000     0.290860000000     0.0608841  
C348     C      0.518390000000     0.537620000000     0.350790000000    -0.0310539  
C349     C      0.521520000000     0.513280000000     0.270480000000    -0.0555239  
C350     C      0.507120000000     0.533090000000     0.387990000000    -0.00352681 
C351     C      0.491930000000     0.485700000000     0.378530000000    -0.00504554 
C352     C      0.503090000000     0.542300000000     0.238510000000    -0.0542107  
C353     C      0.847680000000     0.214080000000     0.980840000000    -0.0308137  
C354     C      0.872500000000     0.196750000000     0.794600000000    -0.0303037  
C355     C      0.835080000000     0.203960000000     0.756640000000    -0.00422776 
C356     C      0.865460000000     0.186160000000     0.756900000000    -0.0046913  
C357     C      0.875090000000     0.220580000000     0.865170000000    -0.0567205  
C358     C      0.837190000000     0.184540000000     0.908810000000    -0.056553   
C359     C      0.853790000000     0.199980000000     0.849770000000     0.0614278  
C360     C      0.844660000000     0.213850000000     0.794090000000    -0.0305546  
C361     C      0.859220000000     0.204150000000     0.924220000000     0.0611918  
C362     C      0.860550000000     0.182150000000     0.977420000000    -0.0305358  
C363     C      0.877850000000     0.222390000000     0.902140000000    -0.0542899  
C364     C      0.869190000000     0.186500000000     0.016120000000    -0.00526236 
C365     C      0.856050000000     0.220060000000     0.019680000000    -0.00456087 
C366     C      0.834710000000     0.182380000000     0.871870000000    -0.0542788  
C367     C      0.833450000000     0.147750000000     0.295080000000    -0.0306702  
C368     C      0.809070000000     0.165500000000     0.481050000000    -0.0309714  
C369     C      0.828060000000     0.137510000000     0.521210000000    -0.00495879 
C370     C      0.799720000000     0.156290000000     0.518850000000    -0.00465056 
C371     C      0.843400000000     0.175480000000     0.414800000000    -0.0566143  
C372     C      0.808250000000     0.142810000000     0.365090000000    -0.0565203  
C373     C      0.821400000000     0.153800000000     0.426600000000     0.0612256  
C374     C      0.836280000000     0.146970000000     0.483180000000    -0.0307366  
C375     C      0.830800000000     0.163800000000     0.353310000000     0.0611549  
C376     C      0.822300000000     0.180680000000     0.300140000000    -0.030693   
C377     C      0.848110000000     0.180180000000     0.378450000000    -0.0542599  
C378     C      0.833510000000     0.192030000000     0.263860000000    -0.00436674 
C379     C      0.844810000000     0.156790000000     0.258140000000    -0.0049262  
C380     C      0.803800000000     0.137750000000     0.401470000000    -0.0544812  
C381     C      0.158520000000     0.353550000000     0.463580000000    -0.0307047  
C382     C      0.205410000000     0.361260000000     0.643810000000    -0.0310194  
C383     C      0.161890000000     0.341970000000     0.690280000000    -0.00492475 
C384     C      0.208250000000     0.373690000000     0.680240000000    -0.00372466 
C385     C      0.186380000000     0.367930000000     0.569200000000    -0.0539603  
C386     C      0.161020000000     0.318330000000     0.542260000000    -0.0541546  
C387     C      0.177580000000     0.347240000000     0.592730000000     0.0610459  
C388     C      0.161360000000     0.331850000000     0.653020000000    -0.0303645  
C389     C      0.168750000000     0.339010000000     0.518930000000     0.0611644  
C390     C      0.178140000000     0.327070000000     0.461810000000    -0.0310526  
C391     C      0.182670000000     0.363980000000     0.532620000000    -0.0558416  
C392     C      0.166340000000     0.316130000000     0.425540000000    -0.00408544 
C393     C      0.146490000000     0.343820000000     0.427300000000    -0.00423389 
C394     C      0.165890000000     0.322290000000     0.578660000000    -0.0556861  
C395     C      0.221790000000     0.403010000000     0.964430000000    -0.0308303  
C396     C      0.206570000000     0.399380000000     0.155490000000    -0.030722   
C397     C      0.185620000000     0.347050000000     0.181550000000    -0.00453427 
C398     C      0.195700000000     0.393280000000     0.193070000000    -0.00389081 
C399     C      0.217740000000     0.385220000000     0.077890000000    -0.0566525  
C400     C      0.179740000000     0.386840000000     0.039520000000    -0.054399   
C401     C      0.196450000000     0.382400000000     0.095710000000     0.0617651  
C402     C      0.196590000000     0.355980000000     0.144530000000    -0.0304627  
C403     C      0.199990000000     0.387870000000     0.021320000000     0.0613384  
C404     C      0.188890000000     0.359300000000     0.971740000000    -0.0308268  
C405     C      0.219200000000     0.387300000000     0.040830000000    -0.0561504  
C406     C      0.180890000000     0.356750000000     0.933000000000    -0.00373766 
C407     C      0.216580000000     0.402830000000     0.924550000000    -0.00473356 
C408     C      0.177910000000     0.383980000000     0.076370000000    -0.0547786  
C409     C      0.070800000000     0.281810000000     0.252850000000    -0.0306873  
C410     C      0.950840000000     0.263630000000     0.185890000000    -0.030727   
C411     C      0.933880000000     0.215600000000     0.148400000000    -0.00513704 
C412     C      0.929770000000     0.254650000000     0.158390000000    -0.005317   
C413     C      0.988410000000     0.260620000000     0.235760000000    -0.0565627  
C414     C      0.035060000000     0.288210000000     0.202790000000    -0.0565608  
C415     C      0.989760000000     0.264540000000     0.198680000000     0.0610009  
C416     C      0.954550000000     0.225820000000     0.176450000000    -0.0306194  
C417     C      0.033690000000     0.284250000000     0.239860000000     0.061058   
C418     C      0.070970000000     0.321770000000     0.260950000000    -0.0306066  
C419     C      0.010230000000     0.270470000000     0.256070000000    -0.0542112  
C420     C      0.091620000000     0.330850000000     0.289000000000    -0.00522203 
C421     C      0.091500000000     0.289230000000     0.280520000000    -0.00524091 
C422     C      0.013230000000     0.278420000000     0.182480000000    -0.0542424  
C423     C      0.390750000000     0.426680000000     0.457390000000    -0.030872   
C424     C      0.280950000000     0.419520000000     0.369400000000    -0.0305181  
C425     C      0.263480000000     0.373430000000     0.326900000000    -0.00528389 
C426     C      0.262930000000     0.414250000000     0.338390000000    -0.00546933 
C427     C      0.311190000000     0.409170000000     0.424490000000    -0.0565545  
C428     C      0.360720000000     0.436810000000     0.401060000000    -0.0565594  
C429     C      0.316260000000     0.415380000000     0.388160000000     0.0610041  
C430     C      0.281420000000     0.380050000000     0.358370000000    -0.0306606  
C431     C      0.355660000000     0.430800000000     0.437440000000     0.0610881  
C432     C      0.390680000000     0.466690000000     0.466050000000    -0.0307122  
C433     C      0.330790000000     0.416890000000     0.448830000000    -0.0544726  
C434     C      0.409010000000     0.474030000000     0.497140000000    -0.00511464 
C435     C      0.409120000000     0.432890000000     0.488240000000    -0.00517784 
C436     C      0.341130000000     0.429160000000     0.376740000000    -0.0542998  
C437     C      0.526290000000     0.990590000000     0.803050000000    -0.0306762  
C438     C      0.543090000000     0.030900000000     0.615680000000    -0.0309596  
C439     C      0.516570000000     0.983450000000     0.575660000000    -0.00559597 
C440     C      0.550130000000     0.029790000000     0.576920000000    -0.00495162 
C441     C      0.510570000000     0.008550000000     0.685360000000    -0.0563853  
C442     C      0.546750000000     0.008490000000     0.730160000000    -0.0563654  
C443     C      0.530660000000     0.006890000000     0.670510000000     0.0608878  
C444     C      0.510940000000     0.985980000000     0.614630000000    -0.0307997  
C445     C      0.525890000000     0.008640000000     0.745030000000     0.0609183  
C446     C      0.537790000000     0.034920000000     0.797990000000    -0.03078    
C447     C      0.508110000000     0.009040000000     0.722270000000    -0.0539515  
C448     C      0.528430000000     0.035560000000     0.835440000000    -0.0044809  
C449     C      0.516870000000     0.988620000000     0.841210000000    -0.0054583  
C450     C      0.548840000000     0.007240000000     0.693240000000    -0.0541901  
C451     C      0.495020000000     0.997510000000     0.123480000000    -0.0308662  
C452     C      0.473810000000     0.004740000000     0.304060000000    -0.0302895  
C453     C      0.512270000000     0.049000000000     0.343250000000    -0.00417933 
C454     C      0.476010000000     0.001790000000     0.344230000000    -0.00430193 
C455     C      0.520930000000     0.023360000000     0.236110000000    -0.0541584  
C456     C      0.484380000000     0.022710000000     0.191430000000    -0.0561149  
C457     C      0.499950000000     0.022870000000     0.251120000000     0.0610296  
C458     C      0.506290000000     0.048640000000     0.303690000000    -0.0304264  
C459     C      0.505720000000     0.023540000000     0.176520000000     0.0608254  
C460     C      0.504790000000     0.041310000000     0.118290000000    -0.0306158  
C461     C      0.523830000000     0.023780000000     0.199230000000    -0.0543216  
C462     C      0.514800000000     0.043780000000     0.080360000000    -0.00525387 
C463     C      0.505000000000     0.997350000000     0.086290000000    -0.00465566 
C464     C      0.481800000000     0.022970000000     0.228460000000    -0.0562364  
C465     C      0.621900000000     0.044950000000     0.009290000000    -0.0307452  
C466     C      0.736960000000     0.143790000000     0.094210000000    -0.0307111  
C467     C      0.760590000000     0.115350000000     0.119580000000    -0.00542809 
C468     C      0.756670000000     0.154870000000     0.123670000000    -0.00526975 
C469     C      0.678230000000     0.092230000000     0.087060000000    -0.0542155  
C470     C      0.683850000000     0.095370000000     0.013080000000    -0.0542994  
C471     C      0.702270000000     0.104510000000     0.072340000000     0.0608906  
C472     C      0.740550000000     0.105540000000     0.090470000000    -0.0305707  
C473     C      0.659810000000     0.082990000000     0.027800000000     0.0609814  
C474     C      0.624720000000     0.086540000000     0.006340000000    -0.0306474  
C475     C      0.657140000000     0.081640000000     0.065090000000    -0.0565074  
C476     C      0.605000000000     0.077520000000     0.976860000000    -0.00529247 
C477     C      0.601920000000     0.034330000000     0.980110000000    -0.00545806 
C478     C      0.704950000000     0.106180000000     0.035040000000    -0.0564984  
C479     C      0.212480000000     0.852210000000     0.460410000000    -0.0308213  
C480     C      0.193080000000     0.877120000000     0.645880000000    -0.030462   
C481     C      0.195340000000     0.835100000000     0.680800000000    -0.00442859 
C482     C      0.183070000000     0.869920000000     0.683870000000    -0.0054304  
C483     C      0.176350000000     0.838940000000     0.566280000000    -0.0540632  
C484     C      0.216840000000     0.882300000000     0.536910000000    -0.0541798  
C485     C      0.193670000000     0.857970000000     0.588910000000     0.0607992  
C486     C      0.205220000000     0.844940000000     0.643370000000    -0.0306225  
C487     C      0.199080000000     0.863630000000     0.514280000000     0.060683   
C488     C      0.179570000000     0.863200000000     0.457540000000    -0.0306198  
C489     C      0.179140000000     0.841480000000     0.529340000000    -0.0563473  
C490     C      0.185450000000     0.871240000000     0.418500000000    -0.00568167 
C491     C      0.219890000000     0.860310000000     0.421640000000    -0.00508713 
C492     C      0.214440000000     0.879400000000     0.573900000000    -0.0564232  
C493     C      0.150840000000     0.800210000000     0.959820000000    -0.0310618  
C494     C      0.145120000000     0.806200000000     0.152420000000    -0.0310549  
C495     C      0.189610000000     0.808710000000     0.183170000000    -0.00472071 
C496     C      0.144390000000     0.796420000000     0.190310000000    -0.00544237 
C497     C      0.174410000000     0.799170000000     0.069290000000    -0.05378    
C498     C      0.153540000000     0.827330000000     0.041950000000    -0.0550335  
C499     C      0.163540000000     0.808820000000     0.092880000000     0.0600419  
C500     C      0.189030000000     0.819030000000     0.146180000000    -0.031115   
C501     C      0.165350000000     0.818380000000     0.018550000000     0.0602378  
C502     C      0.164460000000     0.844670000000     0.968390000000    -0.0305798  
C503     C      0.175850000000     0.804400000000     0.032890000000    -0.0537817  
C504     C      0.172640000000     0.851250000000     0.929450000000    -0.00548491 
C505     C      0.160120000000     0.804090000000     0.921420000000    -0.00374529 
C506     C      0.153280000000     0.823250000000     0.078680000000    -0.0549009  
C507     C      0.406140000000     0.984310000000     0.924390000000    -0.0305824  
C508     C      0.288960000000     0.882190000000     0.846720000000    -0.0305734  
C509     C      0.258590000000     0.906790000000     0.842970000000    -0.00473299 
C510     C      0.260570000000     0.865380000000     0.843880000000    -0.00515061 
C511     C      0.340520000000     0.929410000000     0.850230000000    -0.0565423  
C512     C      0.352500000000     0.938200000000     0.922620000000    -0.056547   
C513     C      0.321270000000     0.920140000000     0.875740000000     0.0609588  
C514     C      0.287100000000     0.921100000000     0.845480000000    -0.0306389  
C515     C      0.371750000000     0.946930000000     0.897150000000     0.0609443  
C516     C      0.403890000000     0.943490000000     0.929430000000    -0.0304343  
C517     C      0.365520000000     0.942600000000     0.860980000000    -0.0541407  
C518     C      0.432210000000     0.955370000000     0.931940000000    -0.00474407 
C519     C      0.434720000000     0.999040000000     0.926740000000    -0.00525123 
C520     C      0.327500000000     0.924850000000     0.911890000000    -0.0541143  
C521     C      0.805350000000     0.645120000000     0.975910000000    -0.0306919  
C522     C      0.813320000000     0.640820000000     0.791670000000    -0.0306934  
C523     C      0.814080000000     0.681660000000     0.749350000000    -0.00545475 
C524     C      0.806630000000     0.636500000000     0.751980000000    -0.00587928 
C525     C      0.788380000000     0.660110000000     0.863760000000    -0.0542457  
C526     C      0.830810000000     0.667710000000     0.900910000000    -0.055992   
C527     C      0.808470000000     0.661310000000     0.844830000000     0.060479   
C528     C      0.820970000000     0.684250000000     0.788910000000    -0.0306196  
C529     C      0.810650000000     0.666850000000     0.919740000000     0.0604883  
C530     C      0.833200000000     0.690840000000     0.972800000000    -0.0305535  
C531     C      0.789480000000     0.662930000000     0.900760000000    -0.0543788  
C532     C      0.829350000000     0.694270000000     0.012310000000    -0.00598808 
C533     C      0.799710000000     0.646370000000     0.015320000000    -0.00528696 
C534     C      0.829950000000     0.665520000000     0.863730000000    -0.0560116  
C535     C      0.866740000000     0.696510000000     0.478520000000    -0.0307654  
C536     C      0.844680000000     0.648370000000     0.294230000000    -0.0306996  
C537     C      0.863200000000     0.695680000000     0.253760000000    -0.00549593 
C538     C      0.833720000000     0.647250000000     0.257210000000    -0.00491158 
C539     C      0.837990000000     0.670770000000     0.372830000000    -0.053901   
C540     C      0.882860000000     0.676370000000     0.398890000000    -0.0541366  
C541     C      0.856340000000     0.673080000000     0.348740000000     0.0604598  
C542     C      0.871990000000     0.693930000000     0.291250000000    -0.0304985  
C543     C      0.864830000000     0.674890000000     0.422960000000     0.0604552  
C544     C      0.856230000000     0.651970000000     0.478910000000    -0.0308492  
C545     C      0.841990000000     0.671360000000     0.409570000000    -0.0562709  
C546     C      0.865700000000     0.654220000000     0.517260000000    -0.00540203 
C547     C      0.876280000000     0.700230000000     0.516930000000    -0.00564061 
C548     C      0.878610000000     0.675160000000     0.362130000000    -0.0563103  
C549     C      0.609640000000     0.573850000000     0.528810000000    -0.03061    
C550     C      0.732640000000     0.595310000000     0.584420000000    -0.0305923  
C551     C      0.762250000000     0.650870000000     0.582580000000    -0.00507852 
C552     C      0.761140000000     0.608240000000     0.583290000000    -0.00529142 
C553     C      0.688110000000     0.593750000000     0.525950000000    -0.0541957  
C554     C      0.655040000000     0.575770000000     0.583490000000    -0.0540966  
C555     C      0.697580000000     0.597960000000     0.560710000000     0.0608234  
C556     C      0.733650000000     0.635880000000     0.583760000000    -0.0307584  
C557     C      0.645570000000     0.571320000000     0.548740000000     0.061026   
C558     C      0.610000000000     0.534350000000     0.522380000000    -0.0305178  
C559     C      0.662320000000     0.580640000000     0.519890000000    -0.0566233  
C560     C      0.581510000000     0.518200000000     0.524770000000    -0.00502675 
C561     C      0.581200000000     0.560270000000     0.532100000000    -0.00466953 
C562     C      0.680800000000     0.589030000000     0.589560000000    -0.0564435  
C563     C      0.065750000000     0.800140000000     0.766250000000    -0.0305693  
C564     C      0.947690000000     0.699970000000     0.689030000000    -0.0306512  
C565     C      0.920320000000     0.727740000000     0.686240000000    -0.00503361 
C566     C      0.919120000000     0.684920000000     0.686850000000    -0.00510116 
C567     C      0.000740000000     0.746820000000     0.690530000000    -0.0563543  
C568     C      0.014380000000     0.752710000000     0.762420000000    -0.0565959  
C569     C      0.982080000000     0.736850000000     0.716920000000     0.0608036  
C570     C      0.948770000000     0.740510000000     0.688500000000    -0.0307504  
C571     C      0.033020000000     0.763180000000     0.736040000000     0.0610446  
C572     C      0.068130000000     0.761580000000     0.762090000000    -0.0305548  
C573     C      0.025970000000     0.759940000000     0.700140000000    -0.0542298  
C574     C      0.096710000000     0.776170000000     0.763290000000    -0.00489688 
C575     C      0.094150000000     0.817130000000     0.767970000000    -0.00497367 
C576     C      0.989130000000     0.739750000000     0.752820000000    -0.0542495  
H1       H      0.711300000000     0.975450000000     0.661100000000     0.0444423  
H2       H      0.786990000000     0.052950000000     0.701920000000     0.0342868  
H3       H      0.726510000000     0.067000000000     0.691860000000     0.0343081  
H4       H      0.711880000000     0.912430000000     0.711790000000     0.0378368  
H5       H      0.803750000000     0.097220000000     0.716770000000     0.0367064  
H6       H      0.664140000000     0.945520000000     0.728070000000     0.0342031  
H7       H      0.737150000000     0.955770000000     0.729790000000     0.0343071  
H8       H      0.647740000000     0.901720000000     0.756330000000     0.0391777  
H9       H      0.755330000000     0.109580000000     0.663150000000     0.0397987  
H10      H      0.734670000000     0.021630000000     0.650490000000     0.0404574  
H11      H      0.815770000000     0.095170000000     0.674240000000     0.0409677  
H12      H      0.715230000000     0.988760000000     0.774230000000     0.0402978  
H13      H      0.777280000000     0.057090000000     0.658310000000     0.0375218  
H14      H      0.720170000000     0.912180000000     0.757420000000     0.0401155  
H15      H      0.761790000000     0.107330000000     0.709170000000     0.0378004  
H16      H      0.678580000000     0.945380000000     0.769690000000     0.0362264  
H17      H      0.720100000000     0.951000000000     0.770650000000     0.0364827  
H18      H      0.738970000000     0.034980000000     0.763660000000     0.0440484  
H19      H      0.742090000000     0.065000000000     0.652460000000     0.037058   
H20      H      0.657630000000     0.904580000000     0.710960000000     0.0386986  
H21      H      0.946090000000     0.341620000000     0.610660000000     0.044213   
H22      H      0.943430000000     0.389330000000     0.498890000000     0.0341969  
H23      H      0.012630000000     0.391570000000     0.514260000000     0.0346282  
H24      H      0.878880000000     0.273710000000     0.630590000000     0.0375585  
H25      H      0.972920000000     0.416690000000     0.453690000000     0.0355099  
H26      H      0.945590000000     0.282740000000     0.582290000000     0.0343751  
H27      H      0.887830000000     0.301260000000     0.579780000000     0.0340892  
H28      H      0.914160000000     0.237330000000     0.598230000000     0.0406338  
H29      H      0.035920000000     0.438420000000     0.500380000000     0.0408417  
H30      H      0.970960000000     0.381720000000     0.578210000000     0.0408435  
H31      H      0.965420000000     0.435290000000     0.483070000000     0.0411752  
H32      H      0.926230000000     0.300300000000     0.511480000000     0.0401848  
H33      H      0.963590000000     0.408990000000     0.534340000000     0.0392561  
H34      H      0.856450000000     0.256260000000     0.596440000000     0.040242   
H35      H      0.017230000000     0.418980000000     0.463970000000     0.0359472  
H36      H      0.920330000000     0.267020000000     0.550840000000     0.0366356  
H37      H      0.886930000000     0.277700000000     0.549490000000     0.0370901  
H38      H      0.951730000000     0.340370000000     0.479040000000     0.043777   
H39      H      0.004960000000     0.410180000000     0.543760000000     0.0383239  
H40      H      0.919110000000     0.260310000000     0.632010000000     0.0374214  
H41      H      0.101520000000     0.665910000000     0.365280000000     0.0442534  
H42      H      0.051010000000     0.631750000000     0.481300000000     0.0345363  
H43      H      0.122160000000     0.636930000000     0.484720000000     0.0343383  
H44      H      0.112040000000     0.737740000000     0.322050000000     0.0367025  
H45      H      0.054730000000     0.612440000000     0.536310000000     0.035132   
H46      H      0.160460000000     0.718260000000     0.376390000000     0.0342393  
H47      H      0.092860000000     0.720380000000     0.379070000000     0.0342919  
H48      H      0.182070000000     0.760730000000     0.346100000000     0.0408484  
H49      H      0.103500000000     0.593740000000     0.512330000000     0.0409441  
H50      H      0.085560000000     0.631610000000     0.409720000000     0.0411884  
H51      H      0.031120000000     0.588260000000     0.508510000000     0.0409076  
H52      H      0.127530000000     0.721860000000     0.449340000000     0.0402043  
H53      H      0.055300000000     0.609390000000     0.454700000000     0.039379   
H54      H      0.113880000000     0.763080000000     0.349070000000     0.0409593  
H55      H      0.098780000000     0.615830000000     0.538540000000     0.03524    
H56      H      0.159240000000     0.743050000000     0.401460000000     0.037503   
H57      H      0.119660000000     0.744300000000     0.403040000000     0.0373442  
H58      H      0.111170000000     0.687510000000     0.493850000000     0.0437457  
H59      H      0.098520000000     0.612540000000     0.456810000000     0.0393096  
H60      H      0.157410000000     0.736110000000     0.320160000000     0.0371453  
H61      H      0.576450000000     0.632140000000     0.874840000000     0.040937   
H62      H      0.575470000000     0.707650000000     0.815970000000     0.0342911  
H63      H      0.649310000000     0.720090000000     0.824770000000     0.0345797  
H64      H      0.548770000000     0.630900000000     0.002620000000     0.0357659  
H65      H      0.596720000000     0.722420000000     0.758890000000     0.0355665  
H66      H      0.612890000000     0.644680000000     0.948900000000     0.03458    
H67      H      0.543380000000     0.642940000000     0.942670000000     0.0342892  
H68      H      0.593750000000     0.605510000000     0.986860000000     0.0410892  
H69      H      0.665510000000     0.759040000000     0.786590000000     0.0410574  
H70      H      0.590550000000     0.660390000000     0.822730000000     0.04405    
H71      H      0.590350000000     0.746000000000     0.777290000000     0.0410874  
H72      H      0.601140000000     0.697420000000     0.943620000000     0.0440391  
H73      H      0.598480000000     0.736380000000     0.837980000000     0.0391582  
H74      H      0.523270000000     0.604090000000     0.980890000000     0.0410897  
H75      H      0.642820000000     0.730470000000     0.764400000000     0.0355801  
H76      H      0.587300000000     0.617710000000     0.927100000000     0.0390587  
H77      H      0.545340000000     0.616660000000     0.923400000000     0.0388957  
H78      H      0.614800000000     0.725630000000     0.891460000000     0.0411002  
H79      H      0.643120000000     0.743900000000     0.843340000000     0.0390641  
H80      H      0.592090000000     0.631720000000     0.006450000000     0.0355405  
H81      H      0.262540000000     0.991080000000     0.278330000000     0.040477   
H82      H      0.331430000000     0.059570000000     0.195560000000     0.0342319  
H83      H      0.261470000000     0.056510000000     0.190270000000     0.0342185  
H84      H      0.246100000000     0.906260000000     0.226090000000     0.0372733  
H85      H      0.341290000000     0.102610000000     0.206920000000     0.0380834  
H86      H      0.209350000000     0.950560000000     0.234700000000     0.0342153  
H87      H      0.277460000000     0.949610000000     0.238590000000     0.0341277  
H88      H      0.187860000000     0.908770000000     0.267870000000     0.0402335  
H89      H      0.281600000000     0.098530000000     0.157690000000     0.0402725  
H90      H      0.284870000000     0.036600000000     0.262850000000     0.0442746  
H91      H      0.351380000000     0.101650000000     0.162530000000     0.0399065  
H92      H      0.256100000000     0.971650000000     0.166950000000     0.0440432  
H93      H      0.317550000000     0.058620000000     0.152960000000     0.0366972  
H94      H      0.255970000000     0.907740000000     0.271350000000     0.0403415  
H95      H      0.290650000000     0.100300000000     0.203390000000     0.037763   
H96      H      0.223230000000     0.950970000000     0.277110000000     0.036924   
H97      H      0.262450000000     0.950360000000     0.279350000000     0.0370361  
H98      H      0.278590000000     0.017190000000     0.151480000000     0.040306   
H99      H      0.277470000000     0.056990000000     0.149920000000     0.0366502  
H100     H      0.197660000000     0.906880000000     0.223630000000     0.0372612  
H101     H      0.426940000000     0.345930000000     0.123640000000     0.0440559  
H102     H      0.426380000000     0.403280000000     0.023340000000     0.0341557  
H103     H      0.495180000000     0.404600000000     0.036970000000     0.0342056  
H104     H      0.366580000000     0.267470000000     0.128000000000     0.0378404  
H105     H      0.454830000000     0.433720000000     0.980590000000     0.0369899  
H106     H      0.442980000000     0.301000000000     0.092300000000     0.0341514  
H107     H      0.372650000000     0.296470000000     0.080270000000     0.0341296  
H108     H      0.421530000000     0.253570000000     0.101820000000     0.0403022  
H109     H      0.518530000000     0.452170000000     0.029130000000     0.0406041  
H110     H      0.448920000000     0.388990000000     0.097940000000     0.0403258  
H111     H      0.449230000000     0.450710000000     0.015150000000     0.0406205  
H112     H      0.418580000000     0.313570000000     0.018890000000     0.0401397  
H113     H      0.446320000000     0.420570000000     0.060300000000     0.0372358  
H114     H      0.351140000000     0.248750000000     0.089440000000     0.0399619  
H115     H      0.502180000000     0.434760000000     0.990080000000     0.036803   
H116     H      0.422460000000     0.282460000000     0.056540000000     0.0366364  
H117     H      0.382040000000     0.279940000000     0.049530000000     0.036446   
H118     H      0.440630000000     0.356660000000     0.993170000000     0.0438509  
H119     H      0.486360000000     0.421300000000     0.068270000000     0.0372558  
H120     H      0.416930000000     0.270970000000     0.136770000000     0.0375607  
H121     H      0.661540000000     0.783850000000     0.552170000000     0.0403418  
H122     H      0.626210000000     0.784370000000     0.433080000000     0.03412    
H123     H      0.704000000000     0.837540000000     0.431320000000     0.0345347  
H124     H      0.636630000000     0.836610000000     0.636070000000     0.038662   
H125     H      0.643980000000     0.775390000000     0.381030000000     0.036508   
H126     H      0.700020000000     0.833850000000     0.592900000000     0.0343903  
H127     H      0.622850000000     0.809250000000     0.584820000000     0.0341105  
H128     H      0.695380000000     0.827730000000     0.659750000000     0.0405486  
H129     H      0.702550000000     0.841970000000     0.365110000000     0.0410179  
H130     H      0.663770000000     0.778520000000     0.487770000000     0.0437484  
H131     H      0.623920000000     0.787430000000     0.367200000000     0.0407043  
H132     H      0.662690000000     0.854830000000     0.533810000000     0.0441537  
H133     H      0.636630000000     0.816560000000     0.418390000000     0.0385855  
H134     H      0.618850000000     0.804370000000     0.651640000000     0.0394524  
H135     H      0.694600000000     0.810480000000     0.379320000000     0.0358671  
H136     H      0.677120000000     0.802280000000     0.607460000000     0.0363305  
H137     H      0.632970000000     0.788280000000     0.602890000000     0.0372814  
H138     H      0.663390000000     0.848730000000     0.469410000000     0.040742   
H139     H      0.682640000000     0.848040000000     0.417270000000     0.0380508  
H140     H      0.692520000000     0.853790000000     0.642640000000     0.037265   
H141     H      0.649110000000     0.814040000000     0.061370000000     0.0407465  
H142     H      0.611200000000     0.824230000000     0.936260000000     0.0342609  
H143     H      0.688590000000     0.849700000000     0.943670000000     0.0339875  
H144     H      0.618140000000     0.855130000000     0.147270000000     0.0358702  
H145     H      0.618740000000     0.803000000000     0.888070000000     0.0362864  
H146     H      0.686250000000     0.879240000000     0.094380000000     0.0340768  
H147     H      0.608350000000     0.826550000000     0.096900000000     0.0345973  
H148     H      0.688460000000     0.877800000000     0.160550000000     0.0406582  
H149     H      0.691940000000     0.852400000000     0.876780000000     0.0394421  
H150     H      0.649320000000     0.805790000000     0.997530000000     0.0437714  
H151     H      0.614950000000     0.828070000000     0.869210000000     0.040439   
H152     H      0.648380000000     0.883450000000     0.037640000000     0.0437584  
H153     H      0.633690000000     0.855410000000     0.919870000000     0.0364238  
H154     H      0.609620000000     0.823890000000     0.163350000000     0.0411758  
H155     H      0.674150000000     0.820630000000     0.894130000000     0.0377108  
H156     H      0.675700000000     0.847410000000     0.110790000000     0.0385509  
H157     H      0.629470000000     0.816130000000     0.112430000000     0.0383637  
H158     H      0.650100000000     0.875960000000     0.973770000000     0.0402555  
H159     H      0.678110000000     0.869950000000     0.924090000000     0.0373435  
H160     H      0.668490000000     0.889570000000     0.145220000000     0.0364973  
H161     H      0.706770000000     0.740050000000     0.136330000000     0.0439691  
H162     H      0.724910000000     0.668330000000     0.179430000000     0.0342883  
H163     H      0.784230000000     0.744950000000     0.181290000000     0.0342707  
H164     H      0.654290000000     0.760660000000     0.184280000000     0.0369057  
H165     H      0.760700000000     0.665990000000     0.199890000000     0.0378365  
H166     H      0.732570000000     0.790680000000     0.194840000000     0.0342546  
H167     H      0.660140000000     0.726030000000     0.204950000000     0.0344759  
H168     H      0.717240000000     0.818840000000     0.218370000000     0.0410363  
H169     H      0.813600000000     0.731290000000     0.157830000000     0.0408495  
H170     H      0.731190000000     0.718330000000     0.130540000000     0.040441   
H171     H      0.754320000000     0.654360000000     0.155000000000     0.0398822  
H172     H      0.712600000000     0.738680000000     0.250590000000     0.0406492  
H173     H      0.740100000000     0.683810000000     0.138440000000     0.0369322  
H174     H      0.644080000000     0.753800000000     0.229760000000     0.0402835  
H175     H      0.802140000000     0.719890000000     0.201770000000     0.0368442  
H176     H      0.718710000000     0.781350000000     0.238460000000     0.038257   
H177     H      0.676360000000     0.743340000000     0.244430000000     0.0375459  
H178     H      0.737160000000     0.717150000000     0.244780000000     0.0442228  
H179     H      0.774540000000     0.728030000000     0.139570000000     0.0374021  
H180     H      0.703190000000     0.803940000000     0.176860000000     0.0356865  
H181     H      0.582590000000     0.957340000000     0.317220000000     0.0442816  
H182     H      0.581400000000     0.875530000000     0.340230000000     0.0342433  
H183     H      0.655220000000     0.938320000000     0.336300000000     0.0341985  
H184     H      0.525860000000     0.961420000000     0.377950000000     0.0373757  
H185     H      0.607760000000     0.857270000000     0.348900000000     0.0367644  
H186     H      0.605790000000     0.001660000000     0.389320000000     0.0344724  
H187     H      0.538690000000     0.930330000000     0.387080000000     0.0342986  
H188     H      0.584050000000     0.020310000000     0.425030000000     0.0398887  
H189     H      0.668750000000     0.911880000000     0.300870000000     0.0400887  
H190     H      0.602190000000     0.932430000000     0.298980000000     0.0404336  
H191     H      0.594800000000     0.849160000000     0.304960000000     0.0406107  
H192     H      0.593360000000     0.945270000000     0.427420000000     0.0404151  
H193     H      0.595420000000     0.889180000000     0.297870000000     0.0371632  
H194     H      0.517010000000     0.948880000000     0.422110000000     0.0407114  
H195     H      0.660130000000     0.901720000000     0.346050000000     0.0375319  
H196     H      0.592100000000     0.985110000000     0.430370000000     0.0369499  
H197     H      0.553330000000     0.944090000000     0.429100000000     0.0370791  
H198     H      0.612670000000     0.920060000000     0.409180000000     0.0439598  
H199     H      0.637970000000     0.925430000000     0.295610000000     0.0370109  
H200     H      0.573450000000     0.012180000000     0.379960000000     0.0381152  
H201     H      0.024380000000     0.481070000000     0.737250000000     0.0436249  
H202     H      0.984770000000     0.505480000000     0.832150000000     0.0344372  
H203     H      0.061220000000     0.562300000000     0.822990000000     0.0339606  
H204     H      0.993130000000     0.472390000000     0.625970000000     0.0352876  
H205     H      0.993780000000     0.537280000000     0.877820000000     0.0354303  
H206     H      0.061270000000     0.518510000000     0.680370000000     0.033944   
H207     H      0.984410000000     0.495620000000     0.670780000000     0.0343394  
H208     H      0.065100000000     0.517870000000     0.614350000000     0.0403743  
H209     H      0.065220000000     0.566000000000     0.889090000000     0.0402628  
H210     H      0.025590000000     0.493620000000     0.799480000000     0.0403359  
H211     H      0.987860000000     0.508060000000     0.898580000000     0.0408381  
H212     H      0.022890000000     0.548500000000     0.703490000000     0.0406285  
H213     H      0.008040000000     0.498670000000     0.849810000000     0.0382806  
H214     H      0.987600000000     0.495540000000     0.604250000000     0.0407933  
H215     H      0.042990000000     0.574210000000     0.871580000000     0.0366055  
H216     H      0.052480000000     0.539350000000     0.658160000000     0.0386711  
H217     H      0.007400000000     0.525930000000     0.652300000000     0.0378705  
H218     H      0.022080000000     0.559960000000     0.765780000000     0.0437982  
H219     H      0.053440000000     0.532390000000     0.844050000000     0.0383718  
H220     H      0.044010000000     0.487070000000     0.633000000000     0.0367237  
H221     H      0.049270000000     0.494380000000     0.285350000000     0.0399793  
H222     H      0.085080000000     0.552860000000     0.169860000000     0.0341376  
H223     H      0.010610000000     0.491640000000     0.173870000000     0.0341106  
H224     H      0.025810000000     0.544810000000     0.377370000000     0.0371326  
H225     H      0.069000000000     0.559060000000     0.116170000000     0.0407187  
H226     H      0.086010000000     0.538800000000     0.332080000000     0.0339998  
H227     H      0.010470000000     0.520710000000     0.322980000000     0.0341347  
H228     H      0.079760000000     0.528800000000     0.397760000000     0.0406605  
H229     H      0.015170000000     0.483110000000     0.107450000000     0.0389059  
H230     H      0.049130000000     0.491670000000     0.220570000000     0.0398652  
H231     H      0.085980000000     0.543550000000     0.103410000000     0.0373219  
H232     H      0.049700000000     0.565810000000     0.277960000000     0.0441818  
H233     H      0.077500000000     0.520800000000     0.159010000000     0.0363482  
H234     H      0.004390000000     0.512080000000     0.388370000000     0.0397968  
H235     H      0.009580000000     0.508570000000     0.118150000000     0.0388794  
H236     H      0.061240000000     0.507030000000     0.342760000000     0.0366829  
H237     H      0.017730000000     0.496710000000     0.337560000000     0.0380383  
H238     H      0.047700000000     0.562100000000     0.212750000000     0.0448998  
H239     H      0.035980000000     0.486490000000     0.161810000000     0.0345686  
H240     H      0.078300000000     0.556520000000     0.384620000000     0.035683   
H241     H      0.969210000000     0.605480000000     0.119090000000     0.0442865  
H242     H      0.886940000000     0.595810000000     0.084430000000     0.0342149  
H243     H      0.944860000000     0.673030000000     0.082280000000     0.0341942  
H244     H      0.978890000000     0.546430000000     0.072890000000     0.0371595  
H245     H      0.866550000000     0.619090000000     0.067270000000     0.0372515  
H246     H      0.013860000000     0.626120000000     0.047630000000     0.0344232  
H247     H      0.946420000000     0.555540000000     0.057140000000     0.0342515  
H248     H      0.034580000000     0.603440000000     0.019540000000     0.0400915  
H249     H      0.915860000000     0.686150000000     0.110530000000     0.039959   
H250     H      0.942060000000     0.623760000000     0.129310000000     0.040399   
H251     H      0.858130000000     0.608950000000     0.112480000000     0.0404715  
H252     H      0.958500000000     0.606940000000     0.005870000000     0.0403597  
H253     H      0.898370000000     0.613330000000     0.125450000000     0.0369749  
H254     H      0.966960000000     0.532900000000     0.029940000000     0.0407095  
H255     H      0.907970000000     0.674450000000     0.065840000000     0.0378526  
H256     H      0.998430000000     0.608140000000     0.008210000000     0.0368615  
H257     H      0.959610000000     0.567290000000     0.013720000000     0.0371556  
H258     H      0.931200000000     0.625020000000     0.016100000000     0.0440197  
H259     H      0.931720000000     0.657710000000     0.124220000000     0.036773   
H260     H      0.026640000000     0.596140000000     0.065630000000     0.0380228  
H261     H      0.350960000000     0.208280000000     0.868910000000     0.0437938  
H262     H      0.385350000000     0.166980000000     0.962750000000     0.0340287  
H263     H      0.307980000000     0.143130000000     0.962790000000     0.0344771  
H264     H      0.371950000000     0.220310000000     0.765090000000     0.0380001  
H265     H      0.365660000000     0.137100000000     0.011710000000     0.0365739  
H266     H      0.310300000000     0.151680000000     0.807120000000     0.0342338  
H267     H      0.387870000000     0.204960000000     0.811690000000     0.0338365  
H268     H      0.312150000000     0.153260000000     0.740040000000     0.0407645  
H269     H      0.307840000000     0.144590000000     0.029270000000     0.0408786  
H270     H      0.351020000000     0.197980000000     0.931960000000     0.0405402  
H271     H      0.386210000000     0.168480000000     0.029170000000     0.0403278  
H272     H      0.349120000000     0.138400000000     0.839760000000     0.0403078  
H273     H      0.375650000000     0.188460000000     0.980280000000     0.0385247  
H274     H      0.389480000000     0.207330000000     0.744760000000     0.0393127  
H275     H      0.315960000000     0.122050000000     0.011890000000     0.0354076  
H276     H      0.332350000000     0.143860000000     0.787660000000     0.0365837  
H277     H      0.376880000000     0.174500000000     0.790350000000     0.0374283  
H278     H      0.347390000000     0.127220000000     0.902880000000     0.0437843  
H279     H      0.329540000000     0.174220000000     0.980610000000     0.0385987  
H280     H      0.316770000000     0.181840000000     0.761110000000     0.0364449  
H281     H      0.352940000000     0.164290000000     0.418640000000     0.0448816  
H282     H      0.317000000000     0.191060000000     0.302680000000     0.0340646  
H283     H      0.392150000000     0.207820000000     0.307500000000     0.0340666  
H284     H      0.386690000000     0.211800000000     0.518010000000     0.0384105  
H285     H      0.318560000000     0.170370000000     0.250610000000     0.0386237  
H286     H      0.314730000000     0.175980000000     0.457720000000     0.0341535  
H287     H      0.391380000000     0.231870000000     0.462490000000     0.0340265  
H288     H      0.310830000000     0.183480000000     0.523550000000     0.0379877  
H289     H      0.395030000000     0.214060000000     0.240010000000     0.0375659  
H290     H      0.351810000000     0.161540000000     0.353350000000     0.044907   
H291     H      0.323100000000     0.200290000000     0.235100000000     0.0390012  
H292     H      0.355530000000     0.236800000000     0.412130000000     0.0397829  
H293     H      0.342190000000     0.221700000000     0.288900000000     0.0346854  
H294     H      0.384680000000     0.239560000000     0.528150000000     0.0392117  
H295     H      0.377730000000     0.181990000000     0.256000000000     0.0401946  
H296     H      0.324590000000     0.208490000000     0.469670000000     0.0364508  
H297     H      0.367560000000     0.239990000000     0.471650000000     0.0348038  
H298     H      0.356000000000     0.234810000000     0.347120000000     0.0397948  
H299     H      0.384230000000     0.230840000000     0.290920000000     0.0362263  
H300     H      0.326830000000     0.166520000000     0.512920000000     0.0400713  
H301     H      0.406030000000     0.113040000000     0.516100000000     0.0445303  
H302     H      0.415420000000     0.033140000000     0.534870000000     0.0342133  
H303     H      0.481900000000     0.105010000000     0.536140000000     0.0342191  
H304     H      0.353580000000     0.124280000000     0.577030000000     0.0391406  
H305     H      0.448280000000     0.023290000000     0.543380000000     0.0376777  
H306     H      0.434490000000     0.156160000000     0.589060000000     0.0342807  
H307     H      0.362420000000     0.090710000000     0.587080000000     0.0342027  
H308     H      0.416940000000     0.179470000000     0.624470000000     0.0395201  
H309     H      0.503610000000     0.086870000000     0.499910000000     0.0405803  
H310     H      0.427140000000     0.089750000000     0.497080000000     0.0404539  
H311     H      0.437240000000     0.014960000000     0.498530000000     0.0399672  
H312     H      0.416070000000     0.099340000000     0.625880000000     0.0401786  
H313     H      0.428550000000     0.049740000000     0.493670000000     0.0370208  
H314     H      0.346000000000     0.115250000000     0.622650000000     0.0389745  
H315     H      0.495650000000     0.074570000000     0.544310000000     0.0369718  
H316     H      0.418820000000     0.140960000000     0.629870000000     0.0359527  
H317     H      0.378030000000     0.103820000000     0.628730000000     0.0359749  
H318     H      0.437580000000     0.076400000000     0.606870000000     0.0438931  
H319     H      0.466890000000     0.091100000000     0.494380000000     0.0370026  
H320     H      0.408440000000     0.173990000000     0.578450000000     0.0385032  
H321     H      0.088910000000     0.466510000000     0.863780000000     0.0401469  
H322     H      0.166060000000     0.459150000000     0.828470000000     0.0343107  
H323     H      0.099510000000     0.387390000000     0.837220000000     0.034459   
H324     H      0.106350000000     0.500760000000     0.990750000000     0.0366177  
H325     H      0.162070000000     0.433580000000     0.776090000000     0.0357666  
H326     H      0.057230000000     0.433030000000     0.936600000000     0.0343169  
H327     H      0.126390000000     0.502500000000     0.934510000000     0.0342009  
H328     H      0.036500000000     0.455150000000     0.964890000000     0.0409005  
H329     H      0.120790000000     0.365470000000     0.810720000000     0.0409156  
H330     H      0.105420000000     0.448390000000     0.820260000000     0.0437992  
H331     H      0.188510000000     0.438300000000     0.802110000000     0.0408384  
H332     H      0.119330000000     0.442680000000     0.949250000000     0.0442081  
H333     H      0.166430000000     0.435650000000     0.857750000000     0.0388071  
H334     H      0.106720000000     0.525280000000     0.963310000000     0.0409986  
H335     H      0.120440000000     0.388840000000     0.781590000000     0.0351969  
H336     H      0.059710000000     0.459260000000     0.910500000000     0.0374512  
H337     H      0.100420000000     0.500190000000     0.909370000000     0.0377156  
H338     H      0.136160000000     0.424940000000     0.905780000000     0.0411709  
H339     H      0.126240000000     0.392230000000     0.862930000000     0.0393413  
H340     H      0.060370000000     0.454940000000     0.991980000000     0.0365726  
H341     H      0.277610000000     0.293050000000     0.667700000000     0.0438931  
H342     H      0.292730000000     0.345540000000     0.781580000000     0.034357   
H343     H      0.225780000000     0.273780000000     0.784090000000     0.0343031  
H344     H      0.335630000000     0.276020000000     0.630620000000     0.0361714  
H345     H      0.269750000000     0.342920000000     0.835550000000     0.0354252  
H346     H      0.265590000000     0.232390000000     0.679700000000     0.0341835  
H347     H      0.338060000000     0.297480000000     0.686320000000     0.0343914  
H348     H      0.283060000000     0.207100000000     0.652610000000     0.0410438  
H349     H      0.202460000000     0.293960000000     0.809320000000     0.0410241  
H350     H      0.259910000000     0.310730000000     0.709850000000     0.0406406  
H351     H      0.270410000000     0.366910000000     0.806620000000     0.0410483  
H352     H      0.301700000000     0.264420000000     0.755310000000     0.0406929  
H353     H      0.267100000000     0.341500000000     0.753880000000     0.0387821  
H354     H      0.356770000000     0.272740000000     0.660100000000     0.0409535  
H355     H      0.227780000000     0.297830000000     0.837250000000     0.0356429  
H356     H      0.288540000000     0.230920000000     0.707860000000     0.0384883  
H357     H      0.331520000000     0.269560000000     0.711910000000     0.0380478  
H358     H      0.284570000000     0.282680000000     0.797510000000     0.0438621  
H359     H      0.226780000000     0.298210000000     0.755360000000     0.0390735  
H360     H      0.288400000000     0.234100000000     0.626110000000     0.0360753  
H361     H      0.552880000000     0.542030000000     0.772070000000     0.0443459  
H362     H      0.511500000000     0.461130000000     0.673110000000     0.0341681  
H363     H      0.491700000000     0.518390000000     0.684400000000     0.0341732  
H364     H      0.519500000000     0.548880000000     0.871750000000     0.035536   
H365     H      0.517990000000     0.474580000000     0.614140000000     0.0392651  
H366     H      0.549780000000     0.502640000000     0.834440000000     0.03409    
H367     H      0.493600000000     0.523020000000     0.823770000000     0.0339289  
H368     H      0.547380000000     0.504750000000     0.901170000000     0.0391993  
H369     H      0.472440000000     0.507080000000     0.621950000000     0.036635   
H370     H      0.545580000000     0.531890000000     0.708350000000     0.0450705  
H371     H      0.486320000000     0.449510000000     0.612640000000     0.0379576  
H372     H      0.486960000000     0.470520000000     0.797110000000     0.0400477  
H373     H      0.479340000000     0.453430000000     0.673230000000     0.0338414  
H374     H      0.490610000000     0.524590000000     0.890250000000     0.0407255  
H375     H      0.505700000000     0.525320000000     0.625320000000     0.0414706  
H376     H      0.518950000000     0.482030000000     0.852170000000     0.0374719  
H377     H      0.486590000000     0.493790000000     0.846250000000     0.036752   
H378     H      0.478780000000     0.461180000000     0.733670000000     0.0397343  
H379     H      0.468460000000     0.485510000000     0.677280000000     0.0359747  
H380     H      0.559320000000     0.534930000000     0.878960000000     0.0377649  
H381     H      0.496020000000     0.553760000000     0.226550000000     0.043095   
H382     H      0.491360000000     0.476210000000     0.323110000000     0.033494   
H383     H      0.519490000000     0.555340000000     0.340130000000     0.0334144  
H384     H      0.551650000000     0.572310000000     0.128190000000     0.0361365  
H385     H      0.471300000000     0.477150000000     0.376830000000     0.0357964  
H386     H      0.480020000000     0.523200000000     0.173700000000     0.0334129  
H387     H      0.558410000000     0.552120000000     0.179070000000     0.0338616  
H388     H      0.481450000000     0.522650000000     0.107910000000     0.0397619  
H389     H      0.520230000000     0.548980000000     0.405560000000     0.038707   
H390     H      0.487420000000     0.541990000000     0.289450000000     0.0431294  
H391     H      0.495620000000     0.470750000000     0.389290000000     0.0403758  
H392     H      0.535410000000     0.511570000000     0.219400000000     0.0395683  
H393     H      0.522220000000     0.496010000000     0.341600000000     0.036318   
H394     H      0.560080000000     0.549660000000     0.112410000000     0.0409023  
H395     H      0.489350000000     0.533550000000     0.386750000000     0.0386683  
H396     H      0.492990000000     0.504160000000     0.157780000000     0.0391661  
H397     H      0.538200000000     0.520630000000     0.160930000000     0.0374929  
H398     H      0.529350000000     0.502450000000     0.282080000000     0.0395247  
H399     H      0.537740000000     0.540750000000     0.352090000000     0.0386302  
H400     H      0.499460000000     0.554260000000     0.126190000000     0.0375755  
H401     H      0.818000000000     0.166760000000     0.860340000000     0.0443832  
H402     H      0.849610000000     0.231670000000     0.968300000000     0.0339558  
H403     H      0.872130000000     0.175990000000     0.962320000000     0.0344388  
H404     H      0.815650000000     0.187640000000     0.758660000000     0.0399469  
H405     H      0.874870000000     0.237410000000     0.020550000000     0.0375872  
H406     H      0.878410000000     0.184770000000     0.809670000000     0.0342621  
H407     H      0.829650000000     0.215020000000     0.808900000000     0.0339318  
H408     H      0.882870000000     0.191120000000     0.742020000000     0.0394742  
H409     H      0.865090000000     0.167920000000     0.027820000000     0.0410177  
H410     H      0.822180000000     0.170630000000     0.925230000000     0.0403104  
H411     H      0.842860000000     0.224410000000     0.034020000000     0.0397483  
H412     H      0.889770000000     0.234870000000     0.848700000000     0.0402634  
H413     H      0.827610000000     0.199000000000     0.979760000000     0.0374502  
H414     H      0.834150000000     0.219190000000     0.741240000000     0.0379914  
H415     H      0.889800000000     0.199290000000     0.016690000000     0.0362707  
H416     H      0.888730000000     0.216520000000     0.793320000000     0.0352376  
H417     H      0.861200000000     0.233430000000     0.792680000000     0.0362521  
H418     H      0.894670000000     0.237870000000     0.913680000000     0.0439036  
H419     H      0.840750000000     0.166470000000     0.976450000000     0.0373415  
H420     H      0.854440000000     0.164970000000     0.758390000000     0.0383143  
H421     H      0.786550000000     0.121340000000     0.410170000000     0.0438898  
H422     H      0.843210000000     0.138700000000     0.308340000000     0.0343104  
H423     H      0.823480000000     0.196260000000     0.317280000000     0.0339246  
H424     H      0.812930000000     0.117220000000     0.520040000000     0.0356905  
H425     H      0.865520000000     0.167220000000     0.260620000000     0.0370148  
H426     H      0.793810000000     0.165930000000     0.465830000000     0.0341047  
H427     H      0.841040000000     0.133620000000     0.469530000000     0.0344904  
H428     H      0.795640000000     0.170330000000     0.531840000000     0.0405796  
H429     H      0.821120000000     0.197940000000     0.250450000000     0.0393442  
H430     H      0.794190000000     0.130290000000     0.346290000000     0.0403563  
H431     H      0.839540000000     0.139720000000     0.241300000000     0.0404777  
H432     H      0.856950000000     0.188700000000     0.433570000000     0.0405043  
H433     H      0.813390000000     0.133040000000     0.292040000000     0.0363304  
H434     H      0.844040000000     0.138180000000     0.535820000000     0.0410031  
H435     H      0.851940000000     0.209510000000     0.267980000000     0.0382804  
H436     H      0.825340000000     0.185260000000     0.482080000000     0.0385253  
H437     H      0.853410000000     0.166090000000     0.484440000000     0.0381788  
H438     H      0.865260000000     0.196730000000     0.369760000000     0.0439005  
H439     H      0.802200000000     0.166030000000     0.297060000000     0.037242   
H440     H      0.781960000000     0.137750000000     0.517230000000     0.0364653  
H441     H      0.159540000000     0.305740000000     0.595590000000     0.0397572  
H442     H      0.146250000000     0.358370000000     0.479500000000     0.0344523  
H443     H      0.180470000000     0.312310000000     0.476270000000     0.0330157  
H444     H      0.153430000000     0.354460000000     0.689250000000     0.0368131  
H445     H      0.127100000000     0.327900000000     0.431510000000     0.0353765  
H446     H      0.219630000000     0.375770000000     0.625650000000     0.0328816  
H447     H      0.142280000000     0.324500000000     0.641860000000     0.0340357  
H448     H      0.226640000000     0.378300000000     0.691770000000     0.0375444  
H449     H      0.179380000000     0.312250000000     0.409920000000     0.0391367  
H450     H      0.150860000000     0.298990000000     0.532160000000     0.0428437  
H451     H      0.145270000000     0.359260000000     0.412990000000     0.0402823  
H452     H      0.195860000000     0.387250000000     0.579390000000     0.0429867  
H453     H      0.176840000000     0.371180000000     0.459320000000     0.0387099  
H454     H      0.149840000000     0.325550000000     0.707810000000     0.040994   
H455     H      0.148740000000     0.297750000000     0.429770000000     0.0369299  
H456     H      0.209160000000     0.345090000000     0.645940000000     0.0375739  
H457     H      0.165210000000     0.315740000000     0.654970000000     0.0362525  
H458     H      0.189900000000     0.380570000000     0.515600000000     0.04009    
H459     H      0.196970000000     0.344160000000     0.458110000000     0.0388048  
H460     H      0.208240000000     0.391950000000     0.676650000000     0.0389819  
H461     H      0.161580000000     0.382120000000     0.089850000000     0.0444926  
H462     H      0.229600000000     0.422830000000     0.974600000000     0.0338517  
H463     H      0.172240000000     0.346010000000     0.987760000000     0.034211   
H464     H      0.164950000000     0.335220000000     0.179210000000     0.0375806  
H465     H      0.207120000000     0.414150000000     0.919930000000     0.0366766  
H466     H      0.204910000000     0.415730000000     0.145090000000     0.0339392  
H467     H      0.187240000000     0.339540000000     0.125910000000     0.0340581  
H468     H      0.208430000000     0.408980000000     0.211190000000     0.038374   
H469     H      0.176050000000     0.337370000000     0.923610000000     0.0395442  
H470     H      0.164680000000     0.386940000000     0.024830000000     0.0441413  
H471     H      0.234730000000     0.412680000000     0.910180000000     0.0398701  
H472     H      0.232600000000     0.384630000000     0.092330000000     0.0399817  
H473     H      0.236070000000     0.397120000000     0.968260000000     0.0356857  
H474     H      0.192440000000     0.334430000000     0.192150000000     0.0401141  
H475     H      0.163680000000     0.358230000000     0.931200000000     0.0382252  
H476     H      0.226770000000     0.405220000000     0.156130000000     0.0367412  
H477     H      0.216870000000     0.362220000000     0.145230000000     0.035532   
H478     H      0.234870000000     0.387590000000     0.027540000000     0.0398133  
H479     H      0.203310000000     0.353500000000     0.975010000000     0.0375937  
H480     H      0.177500000000     0.392890000000     0.193010000000     0.0394091  
H481     H      0.014560000000     0.281440000000     0.153970000000     0.0440454  
H482     H      0.058830000000     0.260660000000     0.252900000000     0.034288   
H483     H      0.059120000000     0.330380000000     0.266990000000     0.0343134  
H484     H      0.942680000000     0.220980000000     0.121630000000     0.0361806  
H485     H      0.082790000000     0.280020000000     0.306270000000     0.036978   
H486     H      0.961330000000     0.284870000000     0.186090000000     0.0343134  
H487     H      0.967780000000     0.218970000000     0.169830000000     0.0342524  
H488     H      0.916380000000     0.260740000000     0.167280000000     0.0406766  
H489     H      0.103810000000     0.351840000000     0.286290000000     0.0410077  
H490     H      0.052950000000     0.298720000000     0.189580000000     0.0406019  
H491     H      0.103640000000     0.281510000000     0.271870000000     0.0406597  
H492     H      0.970530000000     0.249790000000     0.248900000000     0.0406275  
H493     H      0.079380000000     0.287830000000     0.225970000000     0.0375914  
H494     H      0.923440000000     0.194430000000     0.150000000000     0.0410824  
H495     H      0.082880000000     0.327010000000     0.315820000000     0.0365128  
H496     H      0.942500000000     0.256880000000     0.212740000000     0.0377295  
H497     H      0.946180000000     0.217990000000     0.202980000000     0.0381528  
H498     H      0.008910000000     0.267230000000     0.284540000000     0.0440885  
H499     H      0.079610000000     0.328680000000     0.234290000000     0.037757   
H500     H      0.937920000000     0.264290000000     0.132640000000     0.0365993  
H501     H      0.345300000000     0.434000000000     0.348880000000     0.0440832  
H502     H      0.378610000000     0.405590000000     0.455750000000     0.0342394  
H503     H      0.378490000000     0.475100000000     0.470750000000     0.0343835  
H504     H      0.274630000000     0.379740000000     0.301960000000     0.036434   
H505     H      0.398290000000     0.423510000000     0.512710000000     0.036145   
H506     H      0.292920000000     0.440560000000     0.372430000000     0.0342349  
H507     H      0.293730000000     0.371830000000     0.353280000000     0.0341571  
H508     H      0.250420000000     0.421900000000     0.345260000000     0.040999   
H509     H      0.421040000000     0.495120000000     0.497720000000     0.0411424  
H510     H      0.379760000000     0.447480000000     0.391520000000     0.0408276  
H511     H      0.421280000000     0.424640000000     0.482340000000     0.0408187  
H512     H      0.292150000000     0.398450000000     0.434000000000     0.0403088  
H513     H      0.401440000000     0.433520000000     0.432070000000     0.0381798  
H514     H      0.251360000000     0.352350000000     0.325650000000     0.0408856  
H515     H      0.398120000000     0.468080000000     0.522330000000     0.0357794  
H516     H      0.269970000000     0.411750000000     0.394330000000     0.0377682  
H517     H      0.270440000000     0.371130000000     0.382970000000     0.037707   
H518     H      0.326620000000     0.412090000000     0.476700000000     0.0438418  
H519     H      0.401410000000     0.475010000000     0.441080000000     0.0387004  
H520     H      0.273980000000     0.424780000000     0.314610000000     0.036244   
H521     H      0.564760000000     0.006670000000     0.682220000000     0.0437988  
H522     H      0.515740000000     0.971450000000     0.790380000000     0.0343753  
H523     H      0.536160000000     0.049290000000     0.781400000000     0.0339647  
H524     H      0.529350000000     0.975470000000     0.574900000000     0.0358573  
H525     H      0.496090000000     0.977620000000     0.840960000000     0.0374686  
H526     H      0.560080000000     0.045490000000     0.629840000000     0.0340672  
H527     H      0.504180000000     0.967250000000     0.628030000000     0.0345221  
H528     H      0.556140000000     0.048600000000     0.564270000000     0.0404593  
H529     H      0.541830000000     0.054020000000     0.848160000000     0.0388643  
H530     H      0.561280000000     0.009100000000     0.746940000000     0.0403379  
H531     H      0.523230000000     0.977430000000     0.857200000000     0.0402618  
H532     H      0.496720000000     0.009310000000     0.668580000000     0.040693   
H533     H      0.546390000000     0.996130000000     0.803900000000     0.0358757  
H534     H      0.498920000000     0.969590000000     0.562200000000     0.0410025  
H535     H      0.510200000000     0.035000000000     0.833260000000     0.0390382  
H536     H      0.528770000000     0.036960000000     0.616610000000     0.0386097  
H537     H      0.495710000000     0.990740000000     0.615360000000     0.0379438  
H538     H      0.492310000000     0.009860000000     0.733270000000     0.0440867  
H539     H      0.557880000000     0.040360000000     0.798970000000     0.0372172  
H540     H      0.566300000000     0.026460000000     0.576590000000     0.0367689  
H541     H      0.465600000000     0.023040000000     0.239260000000     0.0397013  
H542     H      0.497130000000     0.983510000000     0.140260000000     0.034151   
H543     H      0.514540000000     0.060450000000     0.131080000000     0.0340528  
H544     H      0.531530000000     0.052030000000     0.345690000000     0.0418288  
H545     H      0.523510000000     0.998570000000     0.088980000000     0.0388015  
H546     H      0.466720000000     0.985780000000     0.291200000000     0.0340921  
H547     H      0.523460000000     0.063280000000     0.289900000000     0.034134   
H548     H      0.457400000000     0.994680000000     0.356800000000     0.0370053  
H549     H      0.507860000000     0.054330000000     0.064030000000     0.04014    
H550     H      0.469840000000     0.022040000000     0.174610000000     0.0398593  
H551     H      0.492180000000     0.978770000000     0.073380000000     0.0390228  
H552     H      0.535170000000     0.023540000000     0.253150000000     0.0452008  
H553     H      0.474740000000     0.991280000000     0.122040000000     0.0370972  
H554     H      0.512550000000     0.065700000000     0.356130000000     0.0360146  
H555     H      0.535520000000     0.055620000000     0.081080000000     0.0374805  
H556     H      0.459840000000     0.010940000000     0.299230000000     0.0337079  
H557     H      0.491570000000     0.053960000000     0.299880000000     0.0354906  
H558     H      0.540210000000     0.024170000000     0.188210000000     0.0444623  
H559     H      0.484490000000     0.034900000000     0.117010000000     0.0357341  
H560     H      0.480990000000     0.986630000000     0.348440000000     0.0399084  
H561     H      0.723280000000     0.115900000000     0.022940000000     0.0404106  
H562     H      0.632840000000     0.034900000000     0.007830000000     0.0344599  
H563     H      0.637750000000     0.107360000000     0.002810000000     0.0341886  
H564     H      0.751430000000     0.106710000000     0.145370000000     0.0363757  
H565     H      0.611180000000     0.035420000000     0.954280000000     0.0364102  
H566     H      0.723670000000     0.150980000000     0.098070000000     0.0341951  
H567     H      0.729900000000     0.084320000000     0.091650000000     0.0343822  
H568     H      0.767370000000     0.175960000000     0.120690000000     0.0409411  
H569     H      0.593970000000     0.087330000000     0.980210000000     0.0408377  
H570     H      0.686210000000     0.096800000000     0.984460000000     0.0438856  
H571     H      0.588720000000     0.013860000000     0.985790000000     0.0411024  
H572     H      0.675870000000     0.091040000000     0.115680000000     0.0440559  
H573     H      0.612500000000     0.040840000000     0.035700000000     0.0379926  
H574     H      0.774040000000     0.108700000000     0.113620000000     0.0410314  
H575     H      0.614710000000     0.083430000000     0.950750000000     0.0365584  
H576     H      0.746220000000     0.150650000000     0.067890000000     0.038095   
H577     H      0.749900000000     0.111330000000     0.064050000000     0.0377523  
H578     H      0.638800000000     0.072520000000     0.077190000000     0.040736   
H579     H      0.615400000000     0.083550000000     0.032690000000     0.0381456  
H580     H      0.746970000000     0.150460000000     0.149820000000     0.0364875  
H581     H      0.228630000000     0.894000000000     0.590600000000     0.040204   
H582     H      0.229450000000     0.855440000000     0.475200000000     0.0338999  
H583     H      0.172170000000     0.874710000000     0.470220000000     0.0345106  
H584     H      0.177470000000     0.816710000000     0.678470000000     0.0392655  
H585     H      0.235850000000     0.880200000000     0.421270000000     0.0368878  
H586     H      0.182570000000     0.885160000000     0.632080000000     0.0343736  
H587     H      0.204160000000     0.828850000000     0.627580000000     0.0338478  
H588     H      0.189270000000     0.887760000000     0.699350000000     0.0400871  
H589     H      0.167770000000     0.866370000000     0.404480000000     0.0410022  
H590     H      0.232660000000     0.899120000000     0.525770000000     0.043694   
H591     H      0.226330000000     0.847760000000     0.409710000000     0.040418   
H592     H      0.160640000000     0.822020000000     0.577410000000     0.0440467  
H593     H      0.198490000000     0.831460000000     0.461520000000     0.0381856  
H594     H      0.208860000000     0.831000000000     0.694760000000     0.0386029  
H595     H      0.197640000000     0.892330000000     0.417460000000     0.0359988  
H596     H      0.213110000000     0.892230000000     0.647080000000     0.0356419  
H597     H      0.225210000000     0.860220000000     0.644740000000     0.0369042  
H598     H      0.165630000000     0.826250000000     0.512690000000     0.0403077  
H599     H      0.164750000000     0.842760000000     0.458410000000     0.0376668  
H600     H      0.162310000000     0.859870000000     0.682960000000     0.0378273  
H601     H      0.144780000000     0.831300000000     0.095490000000     0.0395094  
H602     H      0.151010000000     0.783120000000     0.970450000000     0.033256   
H603     H      0.176220000000     0.861880000000     0.984840000000     0.0336868  
H604     H      0.186360000000     0.788980000000     0.180330000000     0.0371266  
H605     H      0.177880000000     0.803570000000     0.920610000000     0.0402429  
H606     H      0.126230000000     0.794720000000     0.140420000000     0.0338219  
H607     H      0.203210000000     0.817720000000     0.129480000000     0.0334012  
H608     H      0.131510000000     0.800030000000     0.206740000000     0.0407343  
H609     H      0.165430000000     0.863580000000     0.919000000000     0.039861   
H610     H      0.144890000000     0.837950000000     0.032360000000     0.0393615  
H611     H      0.146250000000     0.787890000000     0.904980000000     0.0375024  
H612     H      0.182350000000     0.787950000000     0.079330000000     0.0427794  
H613     H      0.131170000000     0.796210000000     0.960670000000     0.0380222  
H614     H      0.208530000000     0.820780000000     0.194770000000     0.0401643  
H615     H      0.193380000000     0.862870000000     0.928620000000     0.0373742  
H616     H      0.149720000000     0.826460000000     0.154180000000     0.0380178  
H617     H      0.194400000000     0.839530000000     0.148040000000     0.0397896  
H618     H      0.185060000000     0.797310000000     0.015610000000     0.0430591  
H619     H      0.144640000000     0.840010000000     0.970790000000     0.0352433  
H620     H      0.136520000000     0.775420000000     0.189070000000     0.0358518  
H621     H      0.312880000000     0.917980000000     0.931780000000     0.0443784  
H622     H      0.400110000000     0.995870000000     0.908560000000     0.0341623  
H623     H      0.396070000000     0.924130000000     0.917530000000     0.0342955  
H624     H      0.250820000000     0.907520000000     0.869360000000     0.0383139  
H625     H      0.442420000000     0.006670000000     0.899900000000     0.0391351  
H626     H      0.296380000000     0.871340000000     0.861310000000     0.0344344  
H627     H      0.293210000000     0.939670000000     0.859020000000     0.0341688  
H628     H      0.256290000000     0.849490000000     0.825110000000     0.0398021  
H629     H      0.436500000000     0.945130000000     0.952940000000     0.0396174  
H630     H      0.356820000000     0.941400000000     0.950710000000     0.0402879  
H631     H      0.440590000000     0.015750000000     0.944600000000     0.0391188  
H632     H      0.336210000000     0.926240000000     0.822130000000     0.0402863  
H633     H      0.398070000000     0.981810000000     0.951590000000     0.0360604  
H634     H      0.252930000000     0.916980000000     0.823740000000     0.0395841  
H635     H      0.439230000000     0.952120000000     0.906340000000     0.0384912  
H636     H      0.297190000000     0.886340000000     0.819500000000     0.0362274  
H637     H      0.295250000000     0.925200000000     0.818200000000     0.0364955  
H638     H      0.380130000000     0.949270000000     0.841100000000     0.044381   
H639     H      0.395970000000     0.941230000000     0.956700000000     0.0360175  
H640     H      0.253090000000     0.856660000000     0.870340000000     0.0384172  
H641     H      0.845980000000     0.667030000000     0.849880000000     0.0401469  
H642     H      0.788740000000     0.628570000000     0.963710000000     0.0341542  
H643     H      0.837310000000     0.708580000000     0.958320000000     0.0342057  
H644     H      0.794350000000     0.677180000000     0.746880000000     0.0372603  
H645     H      0.781520000000     0.645900000000     0.017440000000     0.0376223  
H646     H      0.802780000000     0.622230000000     0.805790000000     0.0342662  
H647     H      0.816320000000     0.698160000000     0.801050000000     0.0342029  
H648     H      0.813630000000     0.624210000000     0.740820000000     0.0408862  
H649     H      0.847400000000     0.709280000000     0.023550000000     0.0408158  
H650     H      0.847240000000     0.670240000000     0.914810000000     0.0400763  
H651     H      0.797630000000     0.629040000000     0.028790000000     0.0401957  
H652     H      0.771830000000     0.657160000000     0.849670000000     0.0442264  
H653     H      0.821510000000     0.641840000000     0.973360000000     0.0378431  
H654     H      0.826070000000     0.700380000000     0.736250000000     0.0405753  
H655     H      0.815840000000     0.701300000000     0.014390000000     0.0368183  
H656     H      0.833640000000     0.647740000000     0.794680000000     0.0370972  
H657     H      0.841450000000     0.691940000000     0.791850000000     0.0381429  
H658     H      0.773720000000     0.661950000000     0.914790000000     0.044305   
H659     H      0.849680000000     0.688120000000     0.970200000000     0.0367293  
H660     H      0.785930000000     0.625880000000     0.749420000000     0.0365354  
H661     H      0.892820000000     0.676200000000     0.344280000000     0.0402067  
H662     H      0.877380000000     0.714990000000     0.464160000000     0.0345921  
H663     H      0.858990000000     0.637370000000     0.464840000000     0.0340944  
H664     H      0.851000000000     0.704320000000     0.255650000000     0.0377336  
H665     H      0.896930000000     0.708780000000     0.516270000000     0.0359247  
H666     H      0.830260000000     0.632350000000     0.310390000000     0.0340449  
H667     H      0.878090000000     0.712370000000     0.305130000000     0.0343928  
H668     H      0.831570000000     0.630120000000     0.243050000000     0.0387957  
H669     H      0.854060000000     0.635670000000     0.530970000000     0.040366   
H670     H      0.900300000000     0.678530000000     0.408710000000     0.0437691  
H671     H      0.872150000000     0.714090000000     0.530350000000     0.0410956  
H672     H      0.820540000000     0.668590000000     0.363020000000     0.0442336  
H673     H      0.846690000000     0.691160000000     0.479000000000     0.0381301  
H674     H      0.879800000000     0.708970000000     0.237740000000     0.0400455  
H675     H      0.885240000000     0.657920000000     0.516440000000     0.0367981  
H676     H      0.861200000000     0.645650000000     0.291970000000     0.0368293  
H677     H      0.888450000000     0.691130000000     0.289040000000     0.0358021  
H678     H      0.827380000000     0.669350000000     0.427420000000     0.0406779  
H679     H      0.835850000000     0.645330000000     0.479230000000     0.0383333  
H680     H      0.814680000000     0.644670000000     0.260390000000     0.0391764  
H681     H      0.687600000000     0.592190000000     0.616680000000     0.0405661  
H682     H      0.617610000000     0.592180000000     0.543710000000     0.0342765  
H683     H      0.618170000000     0.522800000000     0.532590000000     0.0343173  
H684     H      0.768280000000     0.657070000000     0.554710000000     0.0372276  
H685     H      0.576250000000     0.560660000000     0.560460000000     0.0390402  
H686     H      0.724770000000     0.576360000000     0.571230000000     0.0342645  
H687     H      0.726530000000     0.647330000000     0.570060000000     0.034258   
H688     H      0.767010000000     0.597030000000     0.600150000000     0.040817   
H689     H      0.574920000000     0.502740000000     0.504550000000     0.0397221  
H690     H      0.642360000000     0.568900000000     0.605940000000     0.0445111  
H691     H      0.574290000000     0.571220000000     0.516650000000     0.0394446  
H692     H      0.700780000000     0.600620000000     0.503500000000     0.0439118  
H693     H      0.615090000000     0.578400000000     0.500340000000     0.0364865  
H694     H      0.768920000000     0.668350000000     0.599060000000     0.0402068  
H695     H      0.576440000000     0.508840000000     0.551340000000     0.0380903  
H696     H      0.726400000000     0.592130000000     0.612690000000     0.037291   
H697     H      0.727340000000     0.633230000000     0.611990000000     0.0373836  
H698     H      0.655490000000     0.577730000000     0.492790000000     0.0402739  
H699     H      0.615560000000     0.539000000000     0.493970000000     0.036092   
H700     H      0.766980000000     0.607540000000     0.555520000000     0.0366242  
H701     H      0.974990000000     0.732080000000     0.773400000000     0.0439381  
H702     H      0.057800000000     0.811330000000     0.754030000000     0.0343069  
H703     H      0.061930000000     0.743650000000     0.746770000000     0.0342408  
H704     H      0.912920000000     0.728180000000     0.713040000000     0.0371204  
H705     H      0.100920000000     0.826740000000     0.741790000000     0.037787   
H706     H      0.954040000000     0.688090000000     0.703380000000     0.0341781  
H707     H      0.955950000000     0.759100000000     0.702460000000     0.0342956  
H708     H      0.913490000000     0.668210000000     0.669100000000     0.0400244  
H709     H      0.102990000000     0.765390000000     0.780370000000     0.0395273  
H710     H      0.019330000000     0.754760000000     0.790340000000     0.0402843  
H711     H      0.098710000000     0.832330000000     0.788070000000     0.0400517  
H712     H      0.995800000000     0.744680000000     0.662600000000     0.0403597  
H713     H      0.058210000000     0.794850000000     0.793790000000     0.03637    
H714     H      0.915540000000     0.739250000000     0.668130000000     0.0404663  
H715     H      0.103940000000     0.776710000000     0.736010000000     0.0386585  
H716     H      0.955630000000     0.703560000000     0.661640000000     0.0370184  
H717     H      0.956670000000     0.744410000000     0.661090000000     0.0369213  
H718     H      0.040110000000     0.767760000000     0.679560000000     0.0443738  
H719     H      0.060610000000     0.756270000000     0.789630000000     0.0365165  
H720     H      0.911520000000     0.677450000000     0.713780000000     0.0377234  
N1       N      0.788520000000     0.107590000000     0.673800000000    -0.172299   
N2       N      0.755650000000     0.058710000000     0.701700000000    -0.113451   
N3       N      0.701020000000     0.951570000000     0.723370000000    -0.113183   
N4       N      0.681810000000     0.901200000000     0.747660000000    -0.171994   
N5       N      0.002310000000     0.439780000000     0.488930000000    -0.172648   
N6       N      0.976630000000     0.387270000000     0.505760000000    -0.113929   
N7       N      0.918830000000     0.295130000000     0.583730000000    -0.113506   
N8       N      0.884120000000     0.245210000000     0.606260000000    -0.172172   
N9       N      0.066060000000     0.588210000000     0.512350000000    -0.172793   
N10      N      0.087950000000     0.637450000000     0.482240000000    -0.114065   
N11      N      0.124900000000     0.715900000000     0.376790000000    -0.113679   
N12      N      0.148500000000     0.763150000000     0.340610000000    -0.17204    
N13      N      0.628910000000     0.754850000000     0.778880000000    -0.172785   
N14      N      0.611270000000     0.710890000000     0.821700000000    -0.114049   
N15      N      0.579600000000     0.646840000000     0.944570000000    -0.114013   
N16      N      0.557340000000     0.602530000000     0.987110000000    -0.172796   
N17      N      0.319080000000     0.106110000000     0.166920000000    -0.171882   
N18      N      0.295930000000     0.057240000000     0.198270000000    -0.113298   
N19      N      0.243980000000     0.951010000000     0.231480000000    -0.113492   
N20      N      0.219120000000     0.902450000000     0.263910000000    -0.171989   
N21      N      0.485700000000     0.454130000000     0.014890000000    -0.172146   
N22      N      0.459580000000     0.400950000000     0.027340000000    -0.113625   
N23      N      0.408890000000     0.301690000000     0.089690000000    -0.113441   
N24      N      0.384750000000     0.249070000000     0.105340000000    -0.172029   
N25      N      0.663580000000     0.813080000000     0.361010000000    -0.171951   
N26      N      0.665530000000     0.809420000000     0.435950000000    -0.113664   
N27      N      0.662250000000     0.824690000000     0.585650000000    -0.113148   
N28      N      0.658410000000     0.822810000000     0.660630000000    -0.171327   
N29      N      0.652280000000     0.833870000000     0.868390000000    -0.171563   
N30      N      0.649160000000     0.834050000000     0.943440000000    -0.113327   
N31      N      0.646920000000     0.854250000000     0.091720000000    -0.113712   
N32      N      0.648780000000     0.852370000000     0.166890000000    -0.171886   
N33      N      0.787100000000     0.691080000000     0.162470000000    -0.172392   
N34      N      0.753550000000     0.707030000000     0.185140000000    -0.113485   
N35      N      0.696770000000     0.757050000000     0.195720000000    -0.113677   
N36      N      0.678630000000     0.788770000000     0.220660000000    -0.172615   
N37      N      0.634000000000     0.876920000000     0.308120000000    -0.172295   
N38      N      0.618190000000     0.907510000000     0.343460000000    -0.113497   
N39      N      0.572690000000     0.965730000000     0.382990000000    -0.113372   
N40      N      0.547560000000     0.987520000000     0.418230000000    -0.172268   
N41      N      0.026310000000     0.538690000000     0.898290000000    -0.172993   
N42      N      0.022410000000     0.534860000000     0.823600000000    -0.113821   
N43      N      0.022170000000     0.505110000000     0.679470000000    -0.113713   
N44      N      0.025850000000     0.503530000000     0.604880000000    -0.172922   
N45      N      0.046240000000     0.520690000000     0.099850000000    -0.171864   
N46      N      0.046400000000     0.525190000000     0.173470000000    -0.112507   
N47      N      0.049300000000     0.532880000000     0.324740000000    -0.113529   
N48      N      0.043230000000     0.525230000000     0.398740000000    -0.172806   
N49      N      0.883260000000     0.649110000000     0.104650000000    -0.172191   
N50      N      0.916610000000     0.634050000000     0.078190000000    -0.113444   
N51      N      0.979770000000     0.591710000000     0.057340000000    -0.113485   
N52      N      0.003850000000     0.565980000000     0.030710000000    -0.172269   
N53      N      0.346690000000     0.154860000000     0.033790000000    -0.172961   
N54      N      0.346340000000     0.153540000000     0.958840000000    -0.113863   
N55      N      0.348450000000     0.180430000000     0.812960000000    -0.113455   
N56      N      0.349630000000     0.185320000000     0.738450000000    -0.172495   
N57      N      0.355400000000     0.195880000000     0.233350000000    -0.172155   
N58      N      0.353220000000     0.195260000000     0.307270000000    -0.112691   
N59      N      0.354160000000     0.200830000000     0.458560000000    -0.112752   
N60      N      0.350370000000     0.204010000000     0.531990000000    -0.172163   
N61      N      0.473600000000     0.048070000000     0.504650000000    -0.172042   
N62      N      0.448250000000     0.069340000000     0.540770000000    -0.11344    
N63      N      0.398600000000     0.123330000000     0.582150000000    -0.112994   
N64      N      0.378790000000     0.151490000000     0.613700000000    -0.171878   
N65      N      0.155970000000     0.400560000000     0.803950000000    -0.173036   
N66      N      0.131150000000     0.424730000000     0.833270000000    -0.114053   
N67      N      0.093420000000     0.466070000000     0.936370000000    -0.113822   
N68      N      0.070850000000     0.491120000000     0.970110000000    -0.172511   
N69      N      0.235060000000     0.331700000000     0.810670000000    -0.172996   
N70      N      0.260910000000     0.308190000000     0.782660000000    -0.114015   
N71      N      0.300560000000     0.266900000000     0.682470000000    -0.113893   
N72      N      0.320980000000     0.238820000000     0.651600000000    -0.172738   
N73      N      0.491700000000     0.487150000000     0.608400000000    -0.172184   
N74      N      0.506180000000     0.493090000000     0.678800000000    -0.112222   
N75      N      0.523790000000     0.515470000000     0.825710000000    -0.113676   
N76      N      0.522890000000     0.520450000000     0.899750000000    -0.173357   
N77      N      0.501840000000     0.508140000000     0.402290000000    -0.173121   
N78      N      0.502350000000     0.515530000000     0.328410000000    -0.112895   
N79      N      0.519560000000     0.540100000000     0.180250000000    -0.113073   
N80      N      0.521470000000     0.539470000000     0.105440000000    -0.173299   
N81      N      0.857500000000     0.198730000000     0.036380000000    -0.172851   
N82      N      0.863370000000     0.205880000000     0.962150000000    -0.113652   
N83      N      0.850910000000     0.196180000000     0.811810000000    -0.112901   
N84      N      0.850480000000     0.195280000000     0.737560000000    -0.172133   
N85      N      0.837150000000     0.174020000000     0.241540000000    -0.172447   
N86      N      0.836430000000     0.169600000000     0.316050000000    -0.113343   
N87      N      0.816000000000     0.148030000000     0.463920000000    -0.11382    
N88      N      0.818260000000     0.152550000000     0.538680000000    -0.17287    
N89      N      0.160490000000     0.334080000000     0.407300000000    -0.173984   
N90      N      0.161750000000     0.333760000000     0.481840000000    -0.113374   
N91      N      0.180040000000     0.352460000000     0.630540000000    -0.112838   
N92      N      0.187590000000     0.357070000000     0.704320000000    -0.173307   
N93      N      0.200390000000     0.376790000000     0.910410000000    -0.172978   
N94      N      0.198460000000     0.385760000000     0.983100000000    -0.113279   
N95      N      0.192430000000     0.376800000000     0.133160000000    -0.113156   
N96      N      0.191560000000     0.368390000000     0.206240000000    -0.172677   
N97      N      0.105730000000     0.317140000000     0.285740000000    -0.172357   
N98      N      0.055790000000     0.293780000000     0.261740000000    -0.11368    
N99      N      0.967700000000     0.253880000000     0.176570000000    -0.113773   
N100     N      0.917600000000     0.226800000000     0.153120000000    -0.172577   
N101     N      0.423440000000     0.460690000000     0.494140000000    -0.172654   
N102     N      0.375370000000     0.438710000000     0.463470000000    -0.113923   
N103     N      0.296570000000     0.407940000000     0.362210000000    -0.113866   
N104     N      0.249000000000     0.386740000000     0.330050000000    -0.172449   
N105     N      0.524970000000     0.013810000000     0.857630000000    -0.171616   
N106     N      0.522530000000     0.009300000000     0.783010000000    -0.112941   
N107     N      0.533650000000     0.005770000000     0.632500000000    -0.113581   
N108     N      0.529000000000     0.008630000000     0.558060000000    -0.172288   
N109     N      0.508020000000     0.018880000000     0.063970000000    -0.171541   
N110     N      0.509330000000     0.023220000000     0.138550000000    -0.112987   
N111     N      0.498320000000     0.023190000000     0.289480000000    -0.111906   
N112     N      0.494810000000     0.025340000000     0.362570000000    -0.170869   
N113     N      0.589210000000     0.049470000000     0.977350000000    -0.172217   
N114     N      0.638520000000     0.072570000000     0.004160000000    -0.113762   
N115     N      0.723570000000     0.115740000000     0.095980000000    -0.11376    
N116     N      0.772880000000     0.143380000000     0.122680000000    -0.172264   
N117     N      0.198840000000     0.859420000000     0.401780000000    -0.172098   
N118     N      0.202330000000     0.867390000000     0.476200000000    -0.113637   
N119     N      0.189890000000     0.854430000000     0.626940000000    -0.112941   
N120     N      0.190770000000     0.853080000000     0.701730000000    -0.171481   
N121     N      0.164670000000     0.828640000000     0.906400000000    -0.171619   
N122     N      0.167430000000     0.823150000000     0.980410000000    -0.11215    
N123     N      0.163850000000     0.803880000000     0.130750000000    -0.112895   
N124     N      0.169750000000     0.808070000000     0.205610000000    -0.172352   
N125     N      0.445290000000     0.983140000000     0.939090000000    -0.171529   
N126     N      0.397800000000     0.959580000000     0.907150000000    -0.113014   
N127     N      0.295220000000     0.905810000000     0.865870000000    -0.113124   
N128     N      0.248090000000     0.879730000000     0.832680000000    -0.171631   
N129     N      0.819230000000     0.670020000000     0.032270000000    -0.171279   
N130     N      0.810570000000     0.668910000000     0.958130000000    -0.113396   
N131     N      0.806780000000     0.659300000000     0.806410000000    -0.113488   
N132     N      0.816500000000     0.660910000000     0.732540000000    -0.17139    
N133     N      0.865420000000     0.675570000000     0.535840000000    -0.171687   
N134     N      0.870180000000     0.676740000000     0.460730000000    -0.113612   
N135     N      0.851530000000     0.672900000000     0.310980000000    -0.112938   
N136     N      0.848970000000     0.670590000000     0.235960000000    -0.171016   
N137     N      0.568900000000     0.533380000000     0.520190000000    -0.171767   
N138     N      0.618810000000     0.557610000000     0.543730000000    -0.113058   
N139     N      0.724340000000     0.611180000000     0.565820000000    -0.113522   
N140     N      0.773130000000     0.635220000000     0.594580000000    -0.171935   
N141     N      0.107090000000     0.802690000000     0.776090000000    -0.171654   
N142     N      0.059280000000     0.777380000000     0.744790000000    -0.113181   
N143     N      0.955800000000     0.724010000000     0.708170000000    -0.113407   
N144     N      0.908670000000     0.700890000000     0.674430000000    -0.171841   
Ni1      Ni     0.839720000000     0.647890000000     0.636190000000     0.990797   
Ni2      Ni     0.842270000000     0.688390000000     0.632220000000     0.99331    
Ni3      Ni     0.179000000000     0.822140000000     0.801790000000     0.993376   
Ni4      Ni     0.176320000000     0.859940000000     0.806440000000     0.995282   
Ni5      Ni     0.515170000000     0.996060000000     0.963930000000     0.996681   
Ni6      Ni     0.518580000000     0.036850000000     0.957740000000     0.992505   
Ni7      Ni     0.177630000000     0.332590000000     0.302800000000     1.0019     
Ni8      Ni     0.177280000000     0.371360000000     0.311790000000     1.00065    
Ni9      Ni     0.847300000000     0.166710000000     0.135400000000     1.00076    
Ni10     Ni     0.843110000000     0.203560000000     0.141550000000     0.996072   
Ni11     Ni     0.496430000000     0.477670000000     0.501430000000     0.993957   
Ni12     Ni     0.496270000000     0.516660000000     0.509090000000     1.0071     
Ni13     Ni     0.214180000000     0.386090000000     0.803320000000     0.994257   
Ni14     Ni     0.176910000000     0.346250000000     0.811430000000     1.01024    
Ni15     Ni     0.370410000000     0.212890000000     0.637130000000     0.997834   
Ni16     Ni     0.329480000000     0.176830000000     0.633330000000     1.00086    
Ni17     Ni     0.056700000000     0.548180000000     0.997920000000     0.996321   
Ni18     Ni     0.017650000000     0.509470000000     0.999010000000     1.00291    
Ni19     Ni     0.677200000000     0.849920000000     0.264670000000     0.996247   
Ni20     Ni     0.635160000000     0.815770000000     0.263380000000     0.994091   
Ni21     Ni     0.850960000000     0.691770000000     0.131590000000     0.99552    
Ni22     Ni     0.819260000000     0.648170000000     0.135810000000     0.992706   
Ni23     Ni     0.528850000000     0.038410000000     0.460060000000     0.995785   
Ni24     Ni     0.492450000000     0.997330000000     0.462670000000     0.996312   
Ni25     Ni     0.331880000000     0.175490000000     0.130610000000     0.998941   
Ni26     Ni     0.371620000000     0.178300000000     0.135390000000     0.998226   
Ni27     Ni     0.502230000000     0.528130000000     0.000240000000     1.00617    
Ni28     Ni     0.541020000000     0.528930000000     0.005470000000     0.99556    
Ni29     Ni     0.165040000000     0.833930000000     0.304550000000     0.991175   
Ni30     Ni     0.202900000000     0.832640000000     0.303240000000     0.998048   
Ni31     Ni     0.014390000000     0.512430000000     0.499640000000     1.0015     
Ni32     Ni     0.054240000000     0.515440000000     0.503770000000     0.995826   
Ni33     Ni     0.819700000000     0.181340000000     0.637810000000     0.994409   
Ni34     Ni     0.851650000000     0.170230000000     0.636890000000     1.00312    
Ni35     Ni     0.634490000000     0.824460000000     0.762040000000     0.99138    
Ni36     Ni     0.675990000000     0.831830000000     0.766990000000     0.997055   
O1       O      0.852020000000     0.652970000000     0.588180000000    -0.447611   
O2       O      0.827360000000     0.645390000000     0.683890000000    -0.446774   
O3       O      0.806420000000     0.633120000000     0.617950000000    -0.450284   
O4       O      0.873320000000     0.665340000000     0.654140000000    -0.448747   
O5       O      0.875510000000     0.703120000000     0.650790000000    -0.450138   
O6       O      0.808710000000     0.670920000000     0.614030000000    -0.448868   
O7       O      0.829750000000     0.683230000000     0.680020000000    -0.448875   
O8       O      0.854870000000     0.691030000000     0.584740000000    -0.448564   
O9       O      0.170040000000     0.816050000000     0.851110000000    -0.449464   
O10      O      0.187680000000     0.830630000000     0.752660000000    -0.448833   
O11      O      0.213510000000     0.842360000000     0.815120000000    -0.449001   
O12      O      0.144320000000     0.804480000000     0.788940000000    -0.449336   
O13      O      0.141450000000     0.839480000000     0.795550000000    -0.449984   
O14      O      0.211330000000     0.877960000000     0.816920000000    -0.450493   
O15      O      0.183230000000     0.864860000000     0.756400000000    -0.449486   
O16      O      0.169710000000     0.852530000000     0.856260000000    -0.448969   
O17      O      0.520190000000     0.996510000000     0.913500000000    -0.449921   
O18      O      0.510050000000     0.998170000000     0.013920000000    -0.449443   
O19      O      0.480110000000     0.981280000000     0.955600000000    -0.451697   
O20      O      0.550630000000     0.013530000000     0.971510000000    -0.450291   
O21      O      0.553730000000     0.051610000000     0.966130000000    -0.449855   
O22      O      0.483110000000     0.019300000000     0.949510000000    -0.44794    
O23      O      0.513270000000     0.036300000000     0.008100000000    -0.449546   
O24      O      0.523870000000     0.034860000000     0.907830000000    -0.449367   
O25      O      0.170950000000     0.325920000000     0.352490000000    -0.454144   
O26      O      0.184280000000     0.341800000000     0.253740000000    -0.45427    
O27      O      0.212700000000     0.351050000000     0.312940000000    -0.451861   
O28      O      0.142460000000     0.316700000000     0.293320000000    -0.450747   
O29      O      0.142610000000     0.353350000000     0.299250000000    -0.451983   
O30      O      0.212020000000     0.386820000000     0.323850000000    -0.451477   
O31      O      0.186080000000     0.379050000000     0.262720000000    -0.452749   
O32      O      0.168200000000     0.360930000000     0.360120000000    -0.453903   
O33      O      0.852390000000     0.174120000000     0.085590000000    -0.452657   
O34      O      0.842470000000     0.162030000000     0.185770000000    -0.452028   
O35      O      0.811810000000     0.147490000000     0.128080000000    -0.450609   
O36      O      0.882370000000     0.188240000000     0.142990000000    -0.452859   
O37      O      0.878610000000     0.222730000000     0.149050000000    -0.449729   
O38      O      0.808000000000     0.181990000000     0.133580000000    -0.450739   
O39      O      0.838180000000     0.196250000000     0.191450000000    -0.451531   
O40      O      0.848280000000     0.208450000000     0.091250000000    -0.451678   
O41      O      0.498970000000     0.484180000000     0.451270000000    -0.451895   
O42      O      0.493800000000     0.473710000000     0.552080000000    -0.451161   
O43      O      0.460740000000     0.461000000000     0.497430000000    -0.450151   
O44      O      0.532140000000     0.496980000000     0.506200000000    -0.448915   
O45      O      0.531740000000     0.533130000000     0.515160000000    -0.45218    
O46      O      0.460770000000     0.497620000000     0.502720000000    -0.452655   
O47      O      0.491940000000     0.509290000000     0.558830000000    -0.454967   
O48      O      0.500710000000     0.521520000000     0.458840000000    -0.454947   
O49      O      0.210200000000     0.379430000000     0.753140000000    -0.451106   
O50      O      0.215590000000     0.390080000000     0.853990000000    -0.45135    
O51      O      0.232310000000     0.368090000000     0.806700000000    -0.451271   
O52      O      0.193540000000     0.401470000000     0.800660000000    -0.450684   
O53      O      0.158910000000     0.364410000000     0.810160000000    -0.453733   
O54      O      0.197400000000     0.330670000000     0.811960000000    -0.452721   
O55      O      0.181710000000     0.352030000000     0.861440000000    -0.456443   
O56      O      0.174330000000     0.343220000000     0.760960000000    -0.45727    
O57      O      0.369370000000     0.206360000000     0.687200000000    -0.451379   
O58      O      0.368890000000     0.216870000000     0.586790000000    -0.451581   
O59      O      0.354950000000     0.233220000000     0.645170000000    -0.450772   
O60      O      0.383110000000     0.190270000000     0.628520000000    -0.45161    
O61      O      0.344920000000     0.156460000000     0.625330000000    -0.450284   
O62      O      0.316780000000     0.199500000000     0.641290000000    -0.452767   
O63      O      0.330620000000     0.183180000000     0.583290000000    -0.452564   
O64      O      0.330920000000     0.173010000000     0.683700000000    -0.452646   
O65      O      0.050330000000     0.551480000000     0.948840000000    -0.451544   
O66      O      0.060550000000     0.542250000000     0.047030000000    -0.450521   
O67      O      0.071800000000     0.528490000000     0.984230000000    -0.451941   
O68      O      0.038970000000     0.565370000000     0.011890000000    -0.449729   
O69      O      0.002670000000     0.529030000000     0.013560000000    -0.453535   
O70      O      0.035320000000     0.492350000000     0.984650000000    -0.451848   
O71      O      0.024100000000     0.505990000000     0.047890000000    -0.452472   
O72      O      0.013500000000     0.515740000000     0.950200000000    -0.452909   
O73      O      0.672000000000     0.858690000000     0.217580000000    -0.449353   
O74      O      0.679710000000     0.838710000000     0.311630000000    -0.448676   
O75      O      0.686710000000     0.827070000000     0.244330000000    -0.452752   
O76      O      0.664910000000     0.870680000000     0.284810000000    -0.450836   
O77      O      0.625640000000     0.838730000000     0.283550000000    -0.451322   
O78      O      0.647520000000     0.794950000000     0.243470000000    -0.449564   
O79      O      0.640320000000     0.807050000000     0.310480000000    -0.449815   
O80      O      0.632680000000     0.826870000000     0.216370000000    -0.448675   
O81      O      0.857570000000     0.690260000000     0.181240000000    -0.44813    
O82      O      0.842000000000     0.690500000000     0.082280000000    -0.447715   
O83      O      0.826250000000     0.700500000000     0.144520000000    -0.452735   
O84      O      0.873730000000     0.680180000000     0.119040000000    -0.451038   
O85      O      0.844060000000     0.639450000000     0.122960000000    -0.4512     
O86      O      0.796460000000     0.659810000000     0.148250000000    -0.449347   
O87      O      0.812580000000     0.649690000000     0.086240000000    -0.448594   
O88      O      0.828080000000     0.649460000000     0.185170000000    -0.447313   
O89      O      0.536530000000     0.032540000000     0.507330000000    -0.450869   
O90      O      0.518780000000     0.041620000000     0.412890000000    -0.449166   
O91      O      0.509250000000     0.051910000000     0.479750000000    -0.450903   
O92      O      0.546120000000     0.022130000000     0.440640000000    -0.449515   
O93      O      0.511970000000     0.983850000000     0.442870000000    -0.452359   
O94      O      0.475210000000     0.013560000000     0.482260000000    -0.450263   
O95      O      0.484830000000     0.003160000000     0.415300000000    -0.449507   
O96      O      0.502770000000     0.993990000000     0.509650000000    -0.449952   
O97      O      0.335470000000     0.186000000000     0.179300000000    -0.451969   
O98      O      0.330670000000     0.164680000000     0.082400000000    -0.452371   
O99      O      0.317240000000     0.140810000000     0.146080000000    -0.451749   
O100     O      0.349220000000     0.210570000000     0.115760000000    -0.449968   
O101     O      0.386300000000     0.213180000000     0.120870000000    -0.451848   
O102     O      0.354270000000     0.143170000000     0.150020000000    -0.449665   
O103     O      0.368140000000     0.168070000000     0.086510000000    -0.451709   
O104     O      0.372560000000     0.188490000000     0.183840000000    -0.451836   
O105     O      0.504310000000     0.524490000000     0.950100000000    -0.455616   
O106     O      0.502780000000     0.531940000000     0.050750000000    -0.454864   
O107     O      0.520990000000     0.564440000000     0.994690000000    -0.45281    
O108     O      0.486020000000     0.491850000000     0.005900000000    -0.45216    
O109     O      0.522190000000     0.492750000000     0.013180000000    -0.449829   
O110     O      0.557220000000     0.565000000000     0.997190000000    -0.450529   
O111     O      0.540050000000     0.534900000000     0.055340000000    -0.451976   
O112     O      0.539510000000     0.523130000000     0.955220000000    -0.452184   
O113     O      0.174020000000     0.847620000000     0.351820000000    -0.448788   
O114     O      0.158570000000     0.820150000000     0.257220000000    -0.448708   
O115     O      0.149130000000     0.799960000000     0.323520000000    -0.449794   
O116     O      0.183460000000     0.867760000000     0.285240000000    -0.449374   
O117     O      0.219110000000     0.867050000000     0.286070000000    -0.450941   
O118     O      0.184210000000     0.798250000000     0.320390000000    -0.450756   
O119     O      0.194860000000     0.820790000000     0.255110000000    -0.450681   
O120     O      0.208510000000     0.844700000000     0.351390000000    -0.450441   
O121     O      0.011480000000     0.507300000000     0.550140000000    -0.452167   
O122     O      0.019850000000     0.517490000000     0.449420000000    -0.452528   
O123     O      0.000310000000     0.476520000000     0.492970000000    -0.453412   
O124     O      0.031120000000     0.548680000000     0.506390000000    -0.45173    
O125     O      0.068370000000     0.551520000000     0.509550000000    -0.451199   
O126     O      0.037350000000     0.479020000000     0.497610000000    -0.44906    
O127     O      0.057000000000     0.520110000000     0.453220000000    -0.451608   
O128     O      0.049040000000     0.510930000000     0.554090000000    -0.451971   
O129     O      0.828860000000     0.191830000000     0.686210000000    -0.450813   
O130     O      0.812650000000     0.170160000000     0.589390000000    -0.451987   
O131     O      0.797220000000     0.147160000000     0.653820000000    -0.448633   
O132     O      0.844290000000     0.214710000000     0.621940000000    -0.450149   
O133     O      0.874090000000     0.204280000000     0.620790000000    -0.451545   
O134     O      0.827330000000     0.137160000000     0.653470000000    -0.453567   
O135     O      0.842120000000     0.159260000000     0.588710000000    -0.452369   
O136     O      0.858740000000     0.181470000000     0.685220000000    -0.452934   
O137     O      0.634640000000     0.828180000000     0.812810000000    -0.448316   
O138     O      0.636990000000     0.821000000000     0.711600000000    -0.447739   
O139     O      0.623050000000     0.788880000000     0.768230000000    -0.450904   
O140     O      0.648710000000     0.860650000000     0.756080000000    -0.44866    
O141     O      0.687430000000     0.867310000000     0.760330000000    -0.452474   
O142     O      0.661790000000     0.795730000000     0.773140000000    -0.451319   
O143     O      0.675790000000     0.827940000000     0.716280000000    -0.449065   
O144     O      0.673580000000     0.835520000000     0.817380000000    -0.448873   


