data_structure

_audit_creation_method RASPA-1.0
_audit_creation_date 2023-5-25
_audit_author_name 'Poobodin Mano'

_cell_length_a    37.6792
_cell_length_b    37.9934
_cell_length_c    38.0329
_cell_angle_alpha 90
_cell_angle_beta  90
_cell_angle_gamma 90
_cell_volume      54446.4

_symmetry_cell_setting          triclinic
_symmetry_space_group_name_Hall 'P 1'
_symmetry_space_group_name_H-M  'P 1'
_symmetry_Int_Tables_number     1

_symmetry_equiv_pos_as_xyz 'x,y,z'

loop_
_atom_site_label
_atom_site_type_symbol
_atom_site_fract_x
_atom_site_fract_y
_atom_site_fract_z
_atom_site_charge
C1       C      0.064360000000     0.985010000000     0.483240000000     0.431267   
C2       C      0.934120000000     0.012150000000     0.508090000000     0.431533   
C3       C      0.013200000000     0.064320000000     0.498090000000     0.428522   
C4       C      0.986470000000     0.932470000000     0.493230000000     0.428735   
C5       C      0.994580000000     0.495870000000     0.437740000000     0.431514   
C6       C      0.992420000000     0.499310000000     0.571850000000     0.428582   
C7       C      0.983910000000     0.564730000000     0.503310000000     0.427324   
C8       C      0.002690000000     0.431500000000     0.507140000000     0.430233   
C9       C      0.565300000000     0.005910000000     0.500430000000     0.427936   
C10      C      0.432060000000     0.997460000000     0.477730000000     0.431739   
C11      C      0.486760000000     0.005500000000     0.555570000000     0.430181   
C12      C      0.509770000000     0.997930000000     0.423390000000     0.428576   
C13      C      0.484670000000     0.049750000000     0.995820000000     0.429427   
C14      C      0.494070000000     0.916200000000     0.985880000000     0.431449   
C15      C      0.489670000000     0.977080000000     0.057170000000     0.43054    
C16      C      0.489280000000     0.987800000000     0.923280000000     0.427074   
C17      C      0.988820000000     0.503000000000     0.070780000000     0.430017   
C18      C      0.009470000000     0.494270000000     0.938480000000     0.431175   
C19      C      0.066300000000     0.496190000000     0.015150000000     0.430081   
C20      C      0.932350000000     0.501140000000     0.994920000000     0.427707   
C21      C      0.494110000000     0.416770000000     0.972430000000     0.431399   
C22      C      0.510390000000     0.549770000000     0.964650000000     0.429361   
C23      C      0.435130000000     0.492160000000     0.979210000000     0.427229   
C24      C      0.567750000000     0.474270000000     0.958000000000     0.43124    
C25      C      0.660130000000     0.468760000000     0.984430000000    -0.0291937  
C26      C      0.843940000000     0.525940000000     0.959260000000    -0.0310118  
C27      C      0.874440000000     0.474100000000     0.007190000000    -0.00528912 
C28      C      0.878470000000     0.534630000000     0.978940000000    -0.00461087 
C29      C      0.759670000000     0.519110000000     0.983880000000    -0.0529043  
C30      C      0.740720000000     0.466800000000     0.935750000000    -0.0531639  
C31      C      0.786230000000     0.498590000000     0.968220000000     0.0612498  
C32      C      0.840310000000     0.468270000000     0.986520000000    -0.0303981  
C33      C      0.714120000000     0.485260000000     0.953680000000     0.0628916  
C34      C      0.656650000000     0.495930000000     0.926370000000    -0.0347918  
C35      C      0.723910000000     0.513050000000     0.976220000000    -0.0561552  
C36      C      0.620310000000     0.478600000000     0.919110000000     0.017896   
C37      C      0.624620000000     0.450290000000     0.979350000000    -0.00515435 
C38      C      0.776540000000     0.473810000000     0.942350000000    -0.0546674  
C39      C      0.624760000000     0.447130000000     0.896960000000     0.056011   
C40      C      0.158030000000     0.529280000000     0.020600000000    -0.0302643  
C41      C      0.337840000000     0.481610000000     0.968140000000    -0.0309602  
C42      C      0.387150000000     0.514030000000     0.017620000000    -0.00554576 
C43      C      0.374440000000     0.493240000000     0.955210000000    -0.00443051 
C44      C      0.264560000000     0.520860000000     0.982410000000    -0.0526208  
C45      C      0.238340000000     0.477920000000     0.036020000000    -0.0532497  
C46      C      0.288470000000     0.501900000000     0.003380000000     0.0612594  
C47      C      0.349400000000     0.502530000000     0.027170000000    -0.0306669  
C48      C      0.214550000000     0.497730000000     0.015730000000     0.0628221  
C49      C      0.159120000000     0.467640000000     0.003490000000    -0.034899   
C50      C      0.227980000000     0.518290000000     0.987890000000    -0.0557004  
C51      C      0.121650000000     0.461310000000     0.018370000000     0.017954   
C52      C      0.120740000000     0.525880000000     0.035970000000    -0.00435663 
C53      C      0.274870000000     0.479350000000     0.029580000000    -0.0543731  
C54      C      0.123860000000     0.444380000000     0.053130000000     0.0549684  
C55      C      0.534800000000     0.827050000000     0.979230000000    -0.0293113  
C56      C      0.493160000000     0.642080000000     0.941130000000    -0.0310699  
C57      C      0.539430000000     0.602810000000     0.988440000000    -0.00502577 
C58      C      0.505610000000     0.605080000000     0.930910000000    -0.00430649 
C59      C      0.530480000000     0.720060000000     0.944850000000    -0.0531565  
C60      C      0.487620000000     0.745450000000     0.999140000000    -0.0531222  
C61      C      0.513780000000     0.696230000000     0.967570000000     0.0616749  
C62      C      0.526090000000     0.639920000000     0.996130000000    -0.0307464  
C63      C      0.505700000000     0.769320000000     0.977520000000     0.0635364  
C64      C      0.471870000000     0.822570000000     0.966960000000    -0.0345053  
C65      C      0.525990000000     0.756300000000     0.949240000000    -0.0561204  
C66      C      0.464080000000     0.858600000000     0.983550000000     0.0180454  
C67      C      0.530730000000     0.863540000000     0.995550000000    -0.00520122 
C68      C      0.490940000000     0.709250000000     0.993870000000    -0.0546526  
C69      C      0.449040000000     0.854010000000     0.019010000000     0.0589091  
C70      C      0.469240000000     0.323670000000     0.952520000000    -0.0305469  
C71      C      0.514620000000     0.142030000000     0.000610000000    -0.0305341  
C72      C      0.448050000000     0.103540000000     0.993630000000    -0.00439151 
C73      C      0.511330000000     0.105280000000     0.016440000000    -0.00523536 
C74      C      0.460340000000     0.219760000000     0.011650000000    -0.0531273  
C75      C      0.506220000000     0.246220000000     0.960360000000    -0.052671   
C76      C      0.481210000000     0.196440000000     0.991990000000     0.0618744  
C77      C      0.454220000000     0.140240000000     0.978160000000    -0.0309634  
C78      C      0.486990000000     0.269630000000     0.981490000000     0.0630813  
C79      C      0.494450000000     0.326410000000     0.011000000000    -0.0339727  
C80      C      0.462580000000     0.256030000000     0.006060000000    -0.055773   
C81      C      0.509830000000     0.363200000000     0.004980000000     0.0170781  
C82      C      0.483690000000     0.360100000000     0.942840000000    -0.00347936 
C83      C      0.502900000000     0.209910000000     0.964970000000    -0.0550552  
C84      C      0.548450000000     0.360930000000     0.999330000000     0.053733   
C85      C      0.496860000000     0.034540000000     0.647600000000    -0.0308167  
C86      C      0.454900000000     0.989140000000     0.831290000000    -0.0305316  
C87      C      0.522190000000     0.998130000000     0.868210000000    -0.00461671 
C88      C      0.459410000000     0.972930000000     0.867760000000    -0.00557046 
C89      C      0.510740000000     0.980750000000     0.753180000000    -0.0528822  
C90      C      0.458610000000     0.024840000000     0.725130000000    -0.0529231  
C91      C      0.487190000000     0.997980000000     0.775940000000     0.0611391  
C92      C      0.514200000000     0.013700000000     0.831860000000    -0.0309013  
C93      C      0.480790000000     0.005940000000     0.702350000000     0.0625295  
C94      C      0.476410000000     0.973850000000     0.646770000000    -0.0341317  
C95      C      0.508150000000     0.985170000000     0.716790000000    -0.0559523  
C96      C      0.462800000000     0.977150000000     0.608940000000     0.0168812  
C97      C      0.483460000000     0.040900000000     0.610020000000    -0.00367457 
C98      C      0.462140000000     0.021530000000     0.761590000000    -0.0547706  
C99      C      0.424000000000     0.981770000000     0.608840000000     0.0514417  
C100     C      0.466420000000     0.990420000000     0.150750000000    -0.030581   
C101     C      0.516040000000     0.957080000000     0.335350000000    -0.0313923  
C102     C      0.510000000000     0.027360000000     0.365530000000    -0.00398831 
C103     C      0.531460000000     0.964390000000     0.371890000000    -0.00470702 
C104     C      0.526260000000     0.006280000000     0.252610000000    -0.0528176  
C105     C      0.479970000000     0.954270000000     0.228350000000    -0.0521674  
C106     C      0.509150000000     0.984410000000     0.276980000000     0.0617906  
C107     C      0.494520000000     0.017070000000     0.329780000000    -0.0312188  
C108     C      0.498280000000     0.975180000000     0.204000000000     0.0627652  
C109     C      0.527180000000     0.969310000000     0.146740000000    -0.0340659  
C110     C      0.520390000000     0.002340000000     0.216560000000    -0.0556569  
C111     C      0.521440000000     0.955230000000     0.109430000000     0.0169349  
C112     C      0.457580000000     0.976630000000     0.113840000000    -0.00385247 
C113     C      0.484720000000     0.959180000000     0.264510000000    -0.0544754  
C114     C      0.516460000000     0.916790000000     0.110200000000     0.0536986  
C115     C      0.015270000000     0.523610000000     0.845930000000    -0.0302274  
C116     C      0.021180000000     0.513030000000     0.665020000000    -0.0306893  
C117     C      0.962080000000     0.481930000000     0.626330000000    -0.00636406 
C118     C      0.026500000000     0.504420000000     0.626280000000    -0.0036272  
C119     C      0.978890000000     0.508750000000     0.739720000000    -0.0550308  
C120     C      0.031510000000     0.466880000000     0.770340000000    -0.0536112  
C121     C      0.999700000000     0.486540000000     0.718370000000     0.0621567  
C122     C      0.961540000000     0.490050000000     0.665820000000    -0.0297113  
C123     C      0.010920000000     0.488870000000     0.791700000000     0.0630139  
C124     C      0.996210000000     0.462560000000     0.847740000000    -0.0348729  
C125     C      0.983740000000     0.509100000000     0.776180000000    -0.0556722  
C126     C      0.010870000000     0.457440000000     0.885050000000     0.0181123  
C127     C      0.030230000000     0.521720000000     0.883250000000    -0.00436091 
C128     C      0.025760000000     0.465500000000     0.734150000000    -0.0525192  
C129     C      0.045360000000     0.439240000000     0.883790000000     0.054243   
C130     C      0.019000000000     0.516260000000     0.345490000000    -0.0308313  
C131     C      0.979630000000     0.472050000000     0.161930000000    -0.0309464  
C132     C      0.986060000000     0.538920000000     0.124830000000    -0.00399897 
C133     C      0.965190000000     0.475490000000     0.124630000000    -0.00445296 
C134     C      0.963170000000     0.523740000000     0.240010000000    -0.0533582  
C135     C      0.015570000000     0.479740000000     0.267740000000    -0.0522459  
C136     C      0.984820000000     0.504370000000     0.217180000000     0.0622409  
C137     C      0.000140000000     0.532780000000     0.162140000000    -0.031125   
C138     C      0.992560000000     0.497510000000     0.290580000000     0.0627047  
C139     C      0.961240000000     0.488010000000     0.346180000000    -0.0341423  
C140     C      0.967360000000     0.520980000000     0.276400000000    -0.0555831  
C141     C      0.966760000000     0.473760000000     0.383460000000     0.0169453  
C142     C      0.027900000000     0.502730000000     0.382390000000    -0.0032347  
C143     C      0.012310000000     0.483610000000     0.231360000000    -0.0552575  
C144     C      0.975640000000     0.436030000000     0.382180000000     0.0525696  
C145     C      0.338250000000     0.025230000000     0.464600000000    -0.0307844  
C146     C      0.152500000000     0.995160000000     0.443820000000    -0.030815   
C147     C      0.120610000000     0.958230000000     0.503090000000    -0.00648859 
C148     C      0.114230000000     0.981790000000     0.441190000000    -0.00441778 
C149     C      0.228020000000     0.003420000000     0.486400000000    -0.0545084  
C150     C      0.267090000000     0.964780000000     0.437340000000    -0.0532706  
C151     C      0.210650000000     0.978500000000     0.464990000000     0.0621787  
C152     C      0.158620000000     0.972080000000     0.503230000000    -0.0295972  
C153     C      0.284740000000     0.988430000000     0.459570000000     0.063126   
C154     C      0.339960000000     0.963270000000     0.479660000000    -0.0355672  
C155     C      0.264820000000     0.007510000000     0.484510000000    -0.0550381  
C156     C      0.379270000000     0.960050000000     0.469770000000     0.0191561  
C157     C      0.377660000000     0.025580000000     0.454950000000    -0.00362722 
C158     C      0.230530000000     0.959620000000     0.440250000000    -0.0526447  
C159     C      0.382960000000     0.943880000000     0.434760000000     0.0547888  
C160     C      0.844630000000     0.000920000000     0.544020000000    -0.030717   
C161     C      0.656900000000     0.043950000000     0.507420000000    -0.0304444  
C162     C      0.621380000000     0.975950000000     0.514220000000    -0.00433997 
C163     C      0.620150000000     0.039390000000     0.491100000000    -0.00527303 
C164     C      0.736180000000     0.989640000000     0.496260000000    -0.0529209  
C165     C      0.764840000000     0.040670000000     0.540880000000    -0.0531663  
C166     C      0.713380000000     0.012470000000     0.514350000000     0.0614025  
C167     C      0.657630000000     0.984580000000     0.530160000000    -0.0307112  
C168     C      0.787580000000     0.019280000000     0.521080000000     0.0628161  
C169     C      0.840900000000     0.029050000000     0.486530000000    -0.0341002  
C170     C      0.772920000000     0.992460000000     0.500040000000    -0.0563267  
C171     C      0.879320000000     0.041930000000     0.488730000000     0.0173957  
C172     C      0.883070000000     0.013300000000     0.548940000000    -0.00343206 
C173     C      0.728020000000     0.036940000000     0.538160000000    -0.0548819  
C174     C      0.880280000000     0.079270000000     0.499040000000     0.0506169  
C175     C      0.955310000000     0.842720000000     0.465370000000    -0.0308358  
C176     C      0.006750000000     0.659760000000     0.502790000000    -0.0304078  
C177     C      0.943620000000     0.615690000000     0.497280000000    -0.00471994 
C178     C      0.006970000000     0.623140000000     0.519220000000    -0.00543934 
C179     C      0.948050000000     0.733280000000     0.516110000000    -0.0531654  
C180     C      0.991530000000     0.763170000000     0.464650000000    -0.0525876  
C181     C      0.968990000000     0.711350000000     0.494940000000     0.0613662  
C182     C      0.946490000000     0.652780000000     0.481450000000    -0.0309609  
C183     C      0.972860000000     0.785170000000     0.487730000000     0.0622771  
C184     C      0.983850000000     0.838440000000     0.522170000000    -0.0340479  
C185     C      0.949350000000     0.769860000000     0.512170000000    -0.0557623  
C186     C      0.000620000000     0.874980000000     0.519060000000     0.0167623  
C187     C      0.970470000000     0.879720000000     0.458820000000    -0.00376974 
C188     C      0.989140000000     0.726560000000     0.467660000000    -0.0552273  
C189     C      0.038690000000     0.871620000000     0.510840000000     0.0529373  
C190     C      0.048270000000     0.343780000000     0.509970000000    -0.0307175  
C191     C      0.005400000000     0.159180000000     0.477920000000    -0.0318172  
C192     C      0.041240000000     0.114350000000     0.529030000000    -0.0048413  
C193     C      0.015730000000     0.121600000000     0.467680000000    -0.00337929 
C194     C      0.046610000000     0.233020000000     0.485030000000    -0.0524514  
C195     C      0.002110000000     0.262450000000     0.535810000000    -0.0526178  
C196     C      0.027740000000     0.210740000000     0.507730000000     0.0617499  
C197     C      0.030700000000     0.152620000000     0.536190000000    -0.0311427  
C198     C      0.021380000000     0.284750000000     0.513460000000     0.063208   
C199     C      0.986140000000     0.335260000000     0.496480000000    -0.0354374  
C200     C      0.043030000000     0.269600000000     0.487290000000    -0.0552932  
C201     C      0.976110000000     0.372300000000     0.509090000000     0.0188799  
C202     C      0.042130000000     0.381830000000     0.521910000000    -0.00380615 
C203     C      0.004590000000     0.225880000000     0.532610000000    -0.0539547  
C204     C      0.959990000000     0.370500000000     0.544350000000     0.0557949  
H1       H      0.796400000000     0.458550000000     0.928600000000     0.042268   
H2       H      0.676920000000     0.452280000000     0.002010000000     0.0381351  
H3       H      0.671010000000     0.499900000000     0.901060000000     0.0400278  
H4       H      0.867340000000     0.481900000000     0.034480000000     0.0372082  
H5       H      0.629850000000     0.423000000000     0.970140000000     0.0491483  
H6       H      0.829430000000     0.550980000000     0.954330000000     0.0348288  
H7       H      0.822950000000     0.450130000000     0.001780000000     0.0364729  
H8       H      0.896090000000     0.550050000000     0.961240000000     0.039294   
H9       H      0.603770000000     0.497730000000     0.904220000000     0.0382406  
H10      H      0.733640000000     0.446030000000     0.917550000000     0.0496198  
H11      H      0.610940000000     0.448240000000     0.005160000000     0.0464539  
H12      H      0.766700000000     0.538990000000     0.003060000000     0.0448056  
H13      H      0.655170000000     0.494440000000     0.997610000000     0.0391797  
H14      H      0.888940000000     0.448670000000     0.008850000000     0.0427841  
H15      H      0.850200000000     0.513710000000     0.933370000000     0.038839   
H16      H      0.847140000000     0.455420000000     0.961100000000     0.0388367  
H17      H      0.704030000000     0.528840000000     0.989330000000     0.0416167  
H18      H      0.652380000000     0.522370000000     0.938290000000     0.0394107  
H19      H      0.872000000000     0.551440000000     0.002000000000     0.039222   
H20      H      0.292180000000     0.463230000000     0.045500000000     0.042007   
H21      H      0.172480000000     0.550210000000     0.035240000000     0.0363742  
H22      H      0.174580000000     0.442650000000     0.004760000000     0.0411188  
H23      H      0.387310000000     0.543070000000     0.014000000000     0.0377553  
H24      H      0.123070000000     0.522650000000     0.064930000000     0.0410919  
H25      H      0.319230000000     0.482610000000     0.945420000000     0.0351632  
H26      H      0.339480000000     0.519730000000     0.048730000000     0.0359606  
H27      H      0.384110000000     0.473600000000     0.935740000000     0.0409832  
H28      H      0.107750000000     0.442770000000     0.000400000000     0.0422401  
H29      H      0.228440000000     0.461170000000     0.056870000000     0.0491123  
H30      H      0.106120000000     0.550830000000     0.031170000000     0.0421915  
H31      H      0.274400000000     0.537550000000     0.961480000000     0.044697   
H32      H      0.155470000000     0.537530000000     0.992640000000     0.0386526  
H33      H      0.404980000000     0.508000000000     0.040120000000     0.042182   
H34      H      0.338960000000     0.453900000000     0.977680000000     0.0397145  
H35      H      0.350490000000     0.474950000000     0.037000000000     0.0379889  
H36      H      0.210520000000     0.532830000000     0.970650000000     0.0420262  
H37      H      0.157110000000     0.475200000000     0.975250000000     0.0426148  
H38      H      0.371750000000     0.518920000000     0.941430000000     0.0392058  
H39      H      0.476330000000     0.691670000000     0.010890000000     0.0425463  
H40      H      0.557900000000     0.813720000000     0.991720000000     0.0369536  
H41      H      0.447870000000     0.805540000000     0.969190000000     0.039475   
H42      H      0.566730000000     0.604720000000     0.977500000000     0.0364339  
H43      H      0.531740000000     0.860890000000     0.024660000000     0.0470466  
H44      H      0.488740000000     0.657410000000     0.916560000000     0.0351489  
H45      H      0.546210000000     0.653750000000     0.012510000000     0.0362903  
H46      H      0.483810000000     0.591650000000     0.916450000000     0.0406988  
H47      H      0.443650000000     0.871890000000     0.967120000000     0.038423   
H48      H      0.470990000000     0.755050000000     0.020310000000     0.050631   
H49      H      0.553880000000     0.879830000000     0.987570000000     0.0430139  
H50      H      0.547240000000     0.710440000000     0.923810000000     0.0446748  
H51      H      0.540430000000     0.830270000000     0.950670000000     0.0368877  
H52      H      0.541210000000     0.588020000000     0.013590000000     0.0421679  
H53      H      0.467470000000     0.640440000000     0.955540000000     0.039636   
H54      H      0.501050000000     0.637740000000     0.011480000000     0.0391164  
H55      H      0.539130000000     0.773860000000     0.931060000000     0.0413735  
H56      H      0.477560000000     0.825880000000     0.938400000000     0.0393715  
H57      H      0.528690000000     0.607440000000     0.912850000000     0.0385778  
H58      H      0.518140000000     0.192640000000     0.948170000000     0.042116   
H59      H      0.467300000000     0.307770000000     0.928000000000     0.0358848  
H60      H      0.510780000000     0.312080000000     0.030820000000     0.040549   
H61      H      0.433830000000     0.106290000000     0.019100000000     0.0389415  
H62      H      0.507790000000     0.356730000000     0.926290000000     0.0458041  
H63      H      0.533710000000     0.157510000000     0.016730000000     0.0364747  
H64      H      0.428320000000     0.154320000000     0.977470000000     0.0351366  
H65      H      0.537300000000     0.091640000000     0.013930000000     0.0423008  
H66      H      0.505580000000     0.378590000000     0.029490000000     0.0404143  
H67      H      0.524300000000     0.256250000000     0.940610000000     0.0481261  
H68      H      0.463500000000     0.374090000000     0.926710000000     0.040044   
H69      H      0.442650000000     0.209750000000     0.031740000000     0.0450145  
H70      H      0.442090000000     0.326150000000     0.963860000000     0.03837    
H71      H      0.430690000000     0.088450000000     0.975400000000     0.0408353  
H72      H      0.525520000000     0.139400000000     0.973540000000     0.0386642  
H73      H      0.464240000000     0.137970000000     0.950690000000     0.0392908  
H74      H      0.446170000000     0.273240000000     0.021810000000     0.041567   
H75      H      0.467270000000     0.329440000000     0.022120000000     0.038036   
H76      H      0.505550000000     0.107980000000     0.044980000000     0.0370844  
H77      H      0.444450000000     0.036480000000     0.778260000000     0.0416455  
H78      H      0.495650000000     0.059930000000     0.662150000000     0.035611   
H79      H      0.460540000000     0.953710000000     0.661160000000     0.0406644  
H80      H      0.538470000000     0.973950000000     0.864810000000     0.0394454  
H81      H      0.457190000000     0.054160000000     0.611350000000     0.0431848  
H82      H      0.435840000000     0.972720000000     0.816100000000     0.0361551  
H83      H      0.539650000000     0.015860000000     0.817150000000     0.0346954  
H84      H      0.433920000000     0.975630000000     0.882240000000     0.0424468  
H85      H      0.468470000000     0.951890000000     0.595310000000     0.0409942  
H86      H      0.438120000000     0.041770000000     0.714510000000     0.0473032  
H87      H      0.502200000000     0.059010000000     0.596470000000     0.0402862  
H88      H      0.530880000000     0.963380000000     0.763750000000     0.0444393  
H89      H      0.525050000000     0.025710000000     0.646920000000     0.0387241  
H90      H      0.538320000000     0.017400000000     0.883370000000     0.0399423  
H91      H      0.443410000000     0.015960000000     0.834390000000     0.0377568  
H92      H      0.502900000000     0.040650000000     0.834680000000     0.0388532  
H93      H      0.526790000000     0.971410000000     0.700120000000     0.0412992  
H94      H      0.504310000000     0.964300000000     0.645570000000     0.0387209  
H95      H      0.464640000000     0.944290000000     0.864670000000     0.037795   
H96      H      0.469840000000     0.942700000000     0.282360000000     0.0442864  
H97      H      0.441710000000     0.989840000000     0.166780000000     0.0366229  
H98      H      0.548120000000     0.953570000000     0.160200000000     0.0408739  
H99      H      0.536100000000     0.040360000000     0.361290000000     0.0383735  
H100     H      0.443840000000     0.950850000000     0.116380000000     0.0468493  
H101     H      0.532200000000     0.936190000000     0.322530000000     0.0371454  
H102     H      0.494220000000     0.040960000000     0.312820000000     0.0350955  
H103     H      0.527920000000     0.940580000000     0.388490000000     0.0437159  
H104     H      0.546110000000     0.960400000000     0.094250000000     0.0407189  
H105     H      0.462100000000     0.933910000000     0.219200000000     0.0491417  
H106     H      0.438920000000     0.995310000000     0.100970000000     0.0408495  
H107     H      0.544290000000     0.026540000000     0.261700000000     0.0445728  
H108     H      0.475630000000     0.018240000000     0.149070000000     0.0388616  
H109     H      0.491940000000     0.046860000000     0.377980000000     0.0416322  
H110     H      0.488450000000     0.947170000000     0.338680000000     0.0421574  
H111     H      0.466650000000     0.007830000000     0.332980000000     0.0422636  
H112     H      0.533800000000     0.020020000000     0.198700000000     0.0415022  
H113     H      0.537050000000     0.996820000000     0.144450000000     0.038682   
H114     H      0.560470000000     0.968980000000     0.369130000000     0.0373523  
H115     H      0.042290000000     0.448590000000     0.718100000000     0.0470321  
H116     H      0.030820000000     0.543340000000     0.830730000000     0.0356126  
H117     H      0.996620000000     0.436850000000     0.833610000000     0.0404186  
H118     H      0.963480000000     0.452900000000     0.622780000000     0.0448924  
H119     H      0.059480000000     0.518220000000     0.881560000000     0.0411289  
H120     H      0.047680000000     0.512550000000     0.677990000000     0.0354428  
H121     H      0.943200000000     0.471270000000     0.679010000000     0.0373033  
H122     H      0.041380000000     0.526440000000     0.613810000000     0.0395724  
H123     H      0.992030000000     0.440100000000     0.899440000000     0.0400768  
H124     H      0.052140000000     0.450740000000     0.781890000000     0.0499048  
H125     H      0.025290000000     0.547330000000     0.896520000000     0.0418349  
H126     H      0.958950000000     0.525830000000     0.728470000000     0.0408965  
H127     H      0.987230000000     0.532690000000     0.847490000000     0.0372343  
H128     H      0.936540000000     0.490720000000     0.614580000000     0.0433893  
H129     H      0.010060000000     0.540050000000     0.668000000000     0.0384345  
H130     H      0.951000000000     0.517160000000     0.669620000000     0.0363647  
H131     H      0.966680000000     0.525700000000     0.791910000000     0.0409652  
H132     H      0.968000000000     0.471260000000     0.849200000000     0.0401473  
H133     H      0.043270000000     0.480430000000     0.624090000000     0.0417583  
H134     H      0.030590000000     0.469540000000     0.214560000000     0.0437867  
H135     H      0.044280000000     0.519220000000     0.330620000000     0.0356883  
H136     H      0.942950000000     0.470340000000     0.331380000000     0.0407899  
H137     H      0.959670000000     0.551910000000     0.126570000000     0.0386027  
H138     H      0.045190000000     0.479130000000     0.379960000000     0.0433835  
H139     H      0.963350000000     0.452290000000     0.176320000000     0.0371989  
H140     H      0.999150000000     0.558240000000     0.176610000000     0.035138   
H141     H      0.968910000000     0.450020000000     0.110740000000     0.04347    
H142     H      0.941070000000     0.476180000000     0.397640000000     0.0410004  
H143     H      0.035830000000     0.462470000000     0.278240000000     0.0478941  
H144     H      0.043250000000     0.523380000000     0.396500000000     0.0401471  
H145     H      0.942640000000     0.540700000000     0.229510000000     0.044915   
H146     H      0.006170000000     0.542620000000     0.347250000000     0.0385942  
H147     H      0.004420000000     0.557090000000     0.110880000000     0.0404826  
H148     H      0.007400000000     0.462210000000     0.160310000000     0.0415528  
H149     H      0.028320000000     0.523960000000     0.161020000000     0.0408881  
H150     H      0.950180000000     0.536350000000     0.293200000000     0.0413294  
H151     H      0.948180000000     0.514210000000     0.348380000000     0.0383053  
H152     H      0.936160000000     0.480520000000     0.126170000000     0.0367486  
H153     H      0.217580000000     0.940690000000     0.423260000000     0.0470259  
H154     H      0.324350000000     0.045560000000     0.448660000000     0.0361792  
H155     H      0.326840000000     0.937210000000     0.476080000000     0.0411773  
H156     H      0.121300000000     0.929780000000     0.496270000000     0.0464299  
H157     H      0.380070000000     0.024730000000     0.425830000000     0.0408012  
H158     H      0.164160000000     0.995200000000     0.416920000000     0.0358775  
H159     H      0.174990000000     0.954930000000     0.520540000000     0.0374818  
H160     H      0.098550000000     0.000790000000     0.425250000000     0.0411968  
H161     H      0.391960000000     0.942060000000     0.489130000000     0.0411084  
H162     H      0.281970000000     0.949610000000     0.418250000000     0.0498682  
H163     H      0.389320000000     0.050930000000     0.463860000000     0.0425516  
H164     H      0.213530000000     0.019210000000     0.505180000000     0.0417166  
H165     H      0.335770000000     0.032340000000     0.492890000000     0.0396838  
H166     H      0.109460000000     0.960510000000     0.530050000000     0.045503   
H167     H      0.152700000000     0.022710000000     0.453880000000     0.0398593  
H168     H      0.158320000000     0.999150000000     0.514390000000     0.0388718  
H169     H      0.277360000000     0.025580000000     0.502580000000     0.0425786  
H170     H      0.337550000000     0.970290000000     0.508020000000     0.0444153  
H171     H      0.114250000000     0.956080000000     0.427210000000     0.041221   
H172     H      0.711280000000     0.054040000000     0.553690000000     0.0417078  
H173     H      0.831970000000     0.998990000000     0.570390000000     0.0356587  
H174     H      0.825070000000     0.047480000000     0.469960000000     0.0408945  
H175     H      0.625410000000     0.959770000000     0.490170000000     0.0401019  
H176     H      0.883040000000     0.037700000000     0.565100000000     0.0434224  
H177     H      0.671840000000     0.063730000000     0.491690000000     0.0361622  
H178     H      0.673160000000     0.959710000000     0.531960000000     0.034401   
H179     H      0.604620000000     0.063830000000     0.495840000000     0.0419242  
H180     H      0.890970000000     0.040200000000     0.461930000000     0.0407207  
H181     H      0.775730000000     0.060800000000     0.557920000000     0.0478842  
H182     H      0.897960000000     0.992740000000     0.563640000000     0.0400442  
H183     H      0.725350000000     0.969960000000     0.478670000000     0.0446109  
H184     H      0.844430000000     0.974260000000     0.531810000000     0.0385016  
H185     H      0.606180000000     0.959650000000     0.533300000000     0.0395554  
H186     H      0.653690000000     0.054310000000     0.534620000000     0.0370665  
H187     H      0.654340000000     0.995190000000     0.557280000000     0.0382255  
H188     H      0.789720000000     0.974520000000     0.485550000000     0.0414473  
H189     H      0.841070000000     0.003020000000     0.473110000000     0.0394162  
H190     H      0.623190000000     0.036640000000     0.462140000000     0.0385127  
H191     H      0.004430000000     0.710400000000     0.449830000000     0.0418279  
H192     H      0.951480000000     0.829610000000     0.439480000000     0.0352275  
H193     H      0.000520000000     0.821510000000     0.539520000000     0.0403509  
H194     H      0.928850000000     0.617350000000     0.522540000000     0.0394873  
H195     H      0.993100000000     0.877560000000     0.440170000000     0.0433031  
H196     H      0.024880000000     0.676980000000     0.518230000000     0.0364519  
H197     H      0.919500000000     0.664690000000     0.481000000000     0.0348585  
H198     H      0.033900000000     0.611650000000     0.515960000000     0.0423222  
H199     H      0.998570000000     0.887790000000     0.545270000000     0.0402932  
H200     H      0.008970000000     0.774490000000     0.445040000000     0.047256   
H201     H      0.949760000000     0.896140000000     0.445950000000     0.0388681  
H202     H      0.931570000000     0.721990000000     0.536530000000     0.044714   
H203     H      0.928920000000     0.844700000000     0.478430000000     0.0376268  
H204     H      0.927960000000     0.598810000000     0.479090000000     0.0398755  
H205     H      0.017220000000     0.657690000000     0.475490000000     0.0383048  
H206     H      0.956290000000     0.651140000000     0.453870000000     0.0386314  
H207     H      0.933440000000     0.786010000000     0.529480000000     0.0410985  
H208     H      0.957460000000     0.841330000000     0.535050000000     0.0376658  
H209     H      0.002090000000     0.625840000000     0.547940000000     0.0373424  
H210     H      0.988480000000     0.209760000000     0.549730000000     0.0440638  
H211     H      0.071460000000     0.332970000000     0.524530000000     0.0366825  
H212     H      0.962800000000     0.317480000000     0.499540000000     0.0414308  
H213     H      0.070000000000     0.113600000000     0.522540000000     0.0372813  
H214     H      0.042970000000     0.382640000000     0.551130000000     0.0413837  
H215     H      0.005160000000     0.175480000000     0.453590000000     0.036898   
H216     H      0.049710000000     0.164050000000     0.555450000000     0.0365344  
H217     H      0.994680000000     0.110780000000     0.450250000000     0.0429216  
H218     H      0.955650000000     0.382770000000     0.490780000000     0.0419242  
H219     H      0.984560000000     0.273580000000     0.555430000000     0.0503147  
H220     H      0.064490000000     0.398290000000     0.512220000000     0.0425058  
H221     H      0.063760000000     0.221880000000     0.465070000000     0.0453324  
H222     H      0.054760000000     0.344010000000     0.481420000000     0.0392426  
H223     H      0.037420000000     0.098830000000     0.553520000000     0.0428869  
H224     H      0.978130000000     0.159420000000     0.489270000000     0.0446203  
H225     H      0.003750000000     0.152640000000     0.548160000000     0.0408249  
H226     H      0.057340000000     0.285740000000     0.468670000000     0.0428505  
H227     H      0.992770000000     0.336000000000     0.467930000000     0.0446013  
H228     H      0.040860000000     0.122470000000     0.452370000000     0.0387324  
N1       N      0.603140000000     0.468650000000     0.952560000000    -0.172177   
N2       N      0.677740000000     0.473640000000     0.950150000000    -0.110431   
N3       N      0.822270000000     0.502160000000     0.980820000000    -0.112923   
N4       N      0.896240000000     0.502360000000     0.991520000000    -0.171985   
N5       N      0.628880000000     0.418070000000     0.876660000000    -0.104595   
N6       N      0.102050000000     0.494870000000     0.021490000000    -0.172361   
N7       N      0.177010000000     0.495500000000     0.023650000000    -0.1104     
N8       N      0.326080000000     0.505410000000     0.996210000000    -0.112651   
N9       N      0.399620000000     0.497460000000     0.984690000000    -0.171715   
N10      N      0.125900000000     0.428890000000     0.085190000000    -0.106611   
N11      N      0.496640000000     0.880280000000     0.985850000000    -0.172265   
N12      N      0.502240000000     0.806460000000     0.984950000000    -0.109906   
N13      N      0.520430000000     0.659070000000     0.962900000000    -0.113122   
N14      N      0.516570000000     0.585120000000     0.962340000000    -0.172695   
N15      N      0.435370000000     0.849840000000     0.051730000000    -0.101867   
N16      N      0.493280000000     0.380830000000     0.974340000000    -0.172746   
N17      N      0.493480000000     0.306910000000     0.977600000000    -0.11014    
N18      N      0.479650000000     0.159370000000     0.000300000000    -0.11307    
N19      N      0.482100000000     0.085380000000     0.999890000000    -0.172569   
N20      N      0.583980000000     0.358950000000     0.994010000000    -0.106892   
N21      N      0.479490000000     0.007360000000     0.590780000000    -0.172798   
N22      N      0.474380000000     0.008100000000     0.664890000000    -0.110453   
N23      N      0.489410000000     0.990490000000     0.813220000000    -0.112724   
N24      N      0.489360000000     0.988770000000     0.887300000000    -0.171663   
N25      N      0.388270000000     0.986120000000     0.608680000000    -0.107402   
N26      N      0.490110000000     0.971770000000     0.092760000000    -0.172186   
N27      N      0.493770000000     0.968040000000     0.166870000000    -0.10997    
N28      N      0.516650000000     0.989470000000     0.314000000000    -0.112566   
N29      N      0.515310000000     0.996010000000     0.387870000000    -0.171395   
N30      N      0.511740000000     0.881400000000     0.110740000000    -0.102383   
N31      N      0.015150000000     0.491710000000     0.903030000000    -0.173168   
N32      N      0.017750000000     0.488810000000     0.829080000000    -0.110602   
N33      N      0.997510000000     0.486620000000     0.680430000000    -0.111988   
N34      N      0.992590000000     0.498010000000     0.607790000000    -0.171312   
N35      N      0.077170000000     0.422590000000     0.882630000000    -0.107069   
N36      N      0.995480000000     0.492890000000     0.401920000000    -0.173219   
N37      N      0.995580000000     0.490920000000     0.327890000000    -0.110345   
N38      N      0.977970000000     0.506390000000     0.179850000000    -0.112967   
N39      N      0.982050000000     0.505200000000     0.106000000000    -0.172182   
N40      N      0.983910000000     0.401310000000     0.381120000000    -0.107116   
N41      N      0.396730000000     0.994920000000     0.469780000000    -0.172524   
N42      N      0.323050000000     0.990210000000     0.457590000000    -0.110046   
N43      N      0.172910000000     0.971900000000     0.467160000000    -0.112508   
N44      N      0.099010000000     0.976800000000     0.476550000000    -0.171312   
N45      N      0.386380000000     0.929110000000     0.402470000000    -0.107102   
N46      N      0.899570000000     0.020940000000     0.514590000000    -0.173362   
N47      N      0.825270000000     0.026270000000     0.521970000000    -0.110566   
N48      N      0.675700000000     0.010050000000     0.507460000000    -0.112555   
N49      N      0.601310000000     0.007970000000     0.504520000000    -0.171893   
N50      N      0.881250000000     0.113650000000     0.508610000000    -0.107239   
N51      N      0.983250000000     0.896580000000     0.491530000000    -0.17248    
N52      N      0.980240000000     0.822550000000     0.487080000000    -0.110282   
N53      N      0.970480000000     0.674170000000     0.503090000000    -0.112958   
N54      N      0.979000000000     0.600410000000     0.504170000000    -0.171779   
N55      N      0.073690000000     0.868500000000     0.503150000000    -0.108806   
N56      N      0.007420000000     0.395850000000     0.510210000000    -0.171624   
N57      N      0.016470000000     0.322390000000     0.517010000000    -0.109857   
N58      N      0.031310000000     0.173030000000     0.503240000000    -0.112444   
N59      N      0.021220000000     0.099460000000     0.499120000000    -0.171265   
N60      N      0.945270000000     0.368920000000     0.576850000000    -0.107001   
Ni1      Ni     0.993630000000     0.000940000000     0.465000000000     0.998974   
Ni2      Ni     0.004830000000     0.996060000000     0.526410000000     1.00182    
Ni3      Ni     0.962070000000     0.493610000000     0.504250000000     0.999673   
Ni4      Ni     0.024590000000     0.502610000000     0.505290000000     1.00243    
Ni5      Ni     0.496950000000     0.032930000000     0.487340000000     0.997457   
Ni6      Ni     0.500230000000     0.970560000000     0.491740000000     1.003      
Ni7      Ni     0.457870000000     0.980900000000     0.990080000000     0.9992     
Ni8      Ni     0.520860000000     0.985130000000     0.990510000000     1.00263    
Ni9      Ni     0.997770000000     0.467480000000     0.006490000000     1.01029    
Ni10     Ni     0.000970000000     0.529930000000     0.002850000000     0.992348   
Ni11     Ni     0.506850000000     0.484450000000     0.999350000000     1.00676    
Ni12     Ni     0.496150000000     0.482270000000     0.937740000000     0.995649   
O1       O      0.043000000000     0.990990000000     0.457660000000    -0.449851   
O2       O      0.945410000000     0.011310000000     0.476340000000    -0.452635   
O3       O      0.004350000000     0.050030000000     0.468830000000    -0.449449   
O4       O      0.983350000000     0.951220000000     0.465280000000    -0.446344   
O5       O      0.994850000000     0.946980000000     0.522490000000    -0.45122    
O6       O      0.015000000000     0.045660000000     0.526170000000    -0.448332   
O7       O      0.955270000000     0.005620000000     0.533730000000    -0.448769   
O8       O      0.053240000000     0.986170000000     0.515050000000    -0.45073    
O9       O      0.965140000000     0.491810000000     0.454120000000    -0.450775   
O10      O      0.963330000000     0.495110000000     0.554770000000    -0.447008   
O11      O      0.957030000000     0.543990000000     0.502280000000    -0.448077   
O12      O      0.971160000000     0.444120000000     0.505890000000    -0.446881   
O13      O      0.029600000000     0.452230000000     0.506740000000    -0.447872   
O14      O      0.015440000000     0.552120000000     0.504620000000    -0.451445   
O15      O      0.021770000000     0.503430000000     0.555330000000    -0.453389   
O16      O      0.023350000000     0.501530000000     0.454870000000    -0.450501   
O17      O      0.547310000000     0.033880000000     0.494170000000    -0.450692   
O18      O      0.446880000000     0.027770000000     0.480000000000    -0.44936    
O19      O      0.490020000000     0.033820000000     0.537440000000    -0.44779    
O20      O      0.503980000000     0.027900000000     0.437780000000    -0.450433   
O21      O      0.510380000000     0.969890000000     0.442200000000    -0.447565   
O22      O      0.489610000000     0.975380000000     0.540680000000    -0.450825   
O23      O      0.450470000000     0.969380000000     0.481890000000    -0.448668   
O24      O      0.549820000000     0.975870000000     0.501610000000    -0.451081   
O25      O      0.456450000000     0.031240000000     0.992170000000    -0.450948   
O26      O      0.463450000000     0.930860000000     0.987690000000    -0.447486   
O27      O      0.460010000000     0.978880000000     0.040630000000    -0.445104   
O28      O      0.460040000000     0.982960000000     0.939840000000    -0.450215   
O29      O      0.518550000000     0.990650000000     0.940320000000    -0.449403   
O30      O      0.519040000000     0.978980000000     0.040310000000    -0.451547   
O31      O      0.522290000000     0.935050000000     0.985540000000    -0.451492   
O32      O      0.515210000000     0.034880000000     0.996370000000    -0.452064   
O33      O      0.991030000000     0.472740000000     0.056040000000    -0.451528   
O34      O      0.004020000000     0.466340000000     0.956590000000    -0.4508     
O35      O      0.048390000000     0.467570000000     0.012590000000    -0.446283   
O36      O      0.947640000000     0.471520000000     0.000400000000    -0.452969   
O37      O      0.950680000000     0.529610000000     0.993770000000    -0.44724    
O38      O      0.050730000000     0.526050000000     0.012270000000    -0.449718   
O39      O      0.009960000000     0.524470000000     0.953530000000    -0.450286   
O40      O      0.992250000000     0.531170000000     0.052510000000    -0.449614   
O41      O      0.499180000000     0.434810000000     0.000450000000    -0.452467   
O42      O      0.514860000000     0.533880000000     0.994050000000    -0.453313   
O43      O      0.456870000000     0.492900000000     0.005190000000    -0.449524   
O44      O      0.555740000000     0.475630000000     0.989470000000    -0.451649   
O45      O      0.546680000000     0.477770000000     0.931700000000    -0.444468   
O46      O      0.446650000000     0.487020000000     0.947900000000    -0.450043   
O47      O      0.500930000000     0.532490000000     0.937240000000    -0.449867   
O48      O      0.491800000000     0.432150000000     0.942470000000    -0.447274   


