data_structure

_audit_creation_method RASPA-1.0
_audit_creation_date 2023-6-5
_audit_author_name 'Poobodin Mano'

_cell_length_a    60.8165
_cell_length_b    61.2271
_cell_length_c    37.0196
_cell_angle_alpha 89.9484
_cell_angle_beta  90.0512
_cell_angle_gamma 119.909
_cell_volume      119488

_symmetry_cell_setting          triclinic
_symmetry_space_group_name_Hall 'P 1'
_symmetry_space_group_name_H-M  'P 1'
_symmetry_Int_Tables_number     1

_symmetry_equiv_pos_as_xyz 'x,y,z'

loop_
_atom_site_label
_atom_site_type_symbol
_atom_site_fract_x
_atom_site_fract_y
_atom_site_fract_z
_atom_site_charge
Br1      Br     0.777390000000     0.896340000000     0.727570000000    -0.242026   
Br2      Br     0.870250000000     0.256580000000     0.658960000000    -0.233289   
Br3      Br     0.102120000000     0.793330000000     0.393030000000    -0.228209   
Br4      Br     0.539230000000     0.546740000000     0.852910000000    -0.302432   
Br5      Br     0.266810000000     0.104030000000     0.147220000000    -0.238044   
Br6      Br     0.342240000000     0.270720000000     0.191610000000    -0.239031   
Br7      Br     0.646720000000     0.779900000000     0.711660000000    -0.236579   
Br8      Br     0.755290000000     0.875170000000     0.205290000000    -0.236034   
Br9      Br     0.680700000000     0.770140000000     0.304240000000    -0.231307   
Br10     Br     0.711090000000     0.942610000000     0.271970000000    -0.233053   
Br11     Br     0.977120000000     0.527840000000     0.879610000000    -0.241165   
Br12     Br     0.058830000000     0.469960000000     0.386500000000    -0.240784   
Br13     Br     0.958330000000     0.712620000000     0.123900000000    -0.237543   
Br14     Br     0.405340000000     0.177400000000     0.765850000000    -0.206917   
Br15     Br     0.352690000000     0.228020000000     0.596390000000    -0.228772   
Br16     Br     0.425630000000     0.164820000000     0.669830000000    -0.208233   
Br17     Br     0.172760000000     0.388810000000     0.789150000000    -0.236559   
Br18     Br     0.153900000000     0.225980000000     0.872560000000    -0.233226   
Br19     Br     0.542500000000     0.468350000000     0.552740000000    -0.224218   
Br20     Br     0.531080000000     0.559150000000     0.354520000000    -0.230643   
Br21     Br     0.820190000000     0.143310000000     0.740000000000    -0.23978    
Br22     Br     0.772220000000     0.121330000000     0.255060000000    -0.244088   
Br23     Br     0.118920000000     0.229280000000     0.441840000000    -0.233668   
Br24     Br     0.214620000000     0.385520000000     0.950990000000    -0.236673   
Br25     Br     0.917980000000     0.146100000000     0.115370000000    -0.236239   
Br26     Br     0.440640000000     0.410600000000     0.473870000000    -0.225379   
Br27     Br     0.489450000000     0.957900000000     0.811820000000    -0.186135   
Br28     Br     0.458460000000     0.037910000000     0.325890000000    -0.246109   
Br29     Br     0.581610000000     0.079980000000     0.979190000000    -0.237819   
Br30     Br     0.188220000000     0.920730000000     0.472280000000    -0.233038   
Br31     Br     0.172650000000     0.799220000000     0.282310000000    -0.237086   
Br32     Br     0.450200000000     0.946600000000     0.840630000000    -0.187171   
Br33     Br     0.843970000000     0.737940000000     0.733200000000    -0.195826   
Br34     Br     0.838780000000     0.645600000000     0.517040000000    -0.241633   
Br35     Br     0.600150000000     0.512150000000     0.416460000000    -0.229007   
Br36     Br     0.882260000000     0.734320000000     0.725900000000    -0.262447   
C1       C      0.834220000000     0.686410000000     0.693170000000     0.444988   
C2       C      0.862980000000     0.696850000000     0.562010000000     0.440386   
C3       C      0.892410000000     0.716390000000     0.652480000000     0.443703   
C4       C      0.802320000000     0.665550000000     0.603980000000     0.431736   
C5       C      0.172640000000     0.852290000000     0.808560000000     0.426738   
C6       C      0.149560000000     0.836930000000     0.942490000000     0.427965   
C7       C      0.114540000000     0.824330000000     0.858900000000     0.42917    
C8       C      0.208260000000     0.865210000000     0.892620000000     0.428663   
C9       C      0.500550000000     0.011340000000     0.979960000000     0.427899   
C10      C      0.526680000000     0.009740000000     0.849300000000     0.440807   
C11      C      0.558710000000     0.026910000000     0.937840000000     0.438285   
C12      C      0.468590000000     0.994600000000     0.891350000000     0.442467   
C13      C      0.139530000000     0.288180000000     0.420160000000     0.439462   
C14      C      0.177100000000     0.314750000000     0.293650000000     0.427554   
C15      C      0.203220000000     0.325300000000     0.384690000000     0.428742   
C16      C      0.114650000000     0.278110000000     0.328830000000     0.428498   
C17      C      0.841870000000     0.149070000000     0.075240000000     0.432483   
C18      C      0.821340000000     0.123970000000     0.207520000000     0.443158   
C19      C      0.784430000000     0.113090000000     0.126290000000     0.432831   
C20      C      0.879000000000     0.160090000000     0.156510000000     0.437581   
C21      C      0.517450000000     0.503380000000     0.382590000000     0.438276   
C22      C      0.508930000000     0.490640000000     0.519560000000     0.439503   
C23      C      0.464230000000     0.467840000000     0.445090000000     0.437707   
C24      C      0.560110000000     0.524990000000     0.457710000000     0.440371   
C25      C      0.178470000000     0.326040000000     0.921400000000     0.437452   
C26      C      0.165680000000     0.301160000000     0.788230000000     0.430751   
C27      C      0.150940000000     0.340310000000     0.845560000000     0.437721   
C28      C      0.192930000000     0.286650000000     0.864220000000     0.439241   
C29      C      0.331520000000     0.168660000000     0.610060000000     0.439856   
C30      C      0.347180000000     0.146040000000     0.736730000000     0.441502   
C31      C      0.366220000000     0.139670000000     0.646850000000     0.437692   
C32      C      0.312890000000     0.175250000000     0.699480000000     0.429952   
C33      C      0.029140000000     0.530840000000     0.909150000000     0.437143   
C34      C      0.034960000000     0.502210000000     0.036880000000     0.427663   
C35      C      0.048900000000     0.489200000000     0.946330000000     0.427209   
C36      C      0.015300000000     0.544010000000     0.999250000000     0.430261   
C37      C      0.701750000000     0.859730000000     0.241770000000     0.440956   
C38      C      0.699390000000     0.858550000000     0.379790000000     0.429244   
C39      C      0.720480000000     0.830920000000     0.310730000000     0.440515   
C40      C      0.680550000000     0.887350000000     0.309920000000     0.436219   
C41      C      0.855290000000     0.697830000000     0.067940000000     0.429688   
C42      C      0.887990000000     0.699050000000     0.195410000000     0.432181   
C43      C      0.898390000000     0.679880000000     0.108600000000     0.437986   
C44      C      0.844820000000     0.716950000000     0.155380000000     0.427617   
C45      C      0.533690000000     0.023440000000     0.475080000000     0.426088   
C46      C      0.514150000000     0.043100000000     0.348830000000     0.440912   
C47      C      0.498660000000     0.051310000000     0.440830000000     0.430761   
C48      C      0.549550000000     0.014630000000     0.383230000000     0.428412   
C49      C      0.345780000000     0.197480000000     0.238230000000     0.431017   
C50      C      0.344850000000     0.183910000000     0.102050000000     0.430185   
C51      C      0.323300000000     0.142870000000     0.180670000000     0.436885   
C52      C      0.366920000000     0.237940000000     0.160000000000     0.43799    
C53      C      0.560220000000     0.528770000000     0.017210000000     0.429103   
C54      C      0.519850000000     0.487570000000     0.897150000000     0.430168   
C55      C      0.508090000000     0.468780000000     0.993950000000     0.428813   
C56      C      0.570550000000     0.544630000000     0.919750000000     0.443958   
C57      C      0.204790000000     0.881900000000     0.440370000000     0.440317   
C58      C      0.170080000000     0.847330000000     0.314690000000     0.439577   
C59      C      0.162670000000     0.819580000000     0.402480000000     0.441824   
C60      C      0.211490000000     0.908800000000     0.350860000000     0.429133   
C61      C      0.031800000000     0.533170000000     0.536830000000     0.427758   
C62      C      0.027580000000     0.499150000000     0.409340000000     0.435108   
C63      C      0.011210000000     0.471740000000     0.499340000000     0.429298   
C64      C      0.047900000000     0.560550000000     0.447470000000     0.428488   
C65      C      0.872410000000     0.181870000000     0.703730000000     0.444524   
C66      C      0.868610000000     0.168820000000     0.567420000000     0.428792   
C67      C      0.847410000000     0.128370000000     0.645160000000     0.4326     
C68      C      0.894450000000     0.223790000000     0.626180000000     0.436462   
C69      C      0.707930000000     0.855110000000     0.865800000000     0.426715   
C70      C      0.703390000000     0.818000000000     0.740650000000     0.442689   
C71      C      0.684790000000     0.793050000000     0.830810000000     0.430628   
C72      C      0.726890000000     0.880850000000     0.774140000000     0.436757   
C73      C      0.734790000000     0.939030000000     0.727270000000    -0.0318981  
C74      C      0.835990000000     0.065860000000     0.675450000000    -0.0308936  
C75      C      0.806740000000     0.088300000000     0.648180000000    -0.00309033 
C76      C      0.848740000000     0.088810000000     0.650500000000    -0.00375765 
C77      C      0.785690000000     0.004940000000     0.663960000000    -0.0525891  
C78      C      0.783570000000     0.001010000000     0.739300000000    -0.0511135  
C79      C      0.796560000000     0.026860000000     0.684960000000     0.0633525  
C80      C      0.795910000000     0.065480000000     0.673400000000    -0.0308528  
C81      C      0.772900000000     0.979070000000     0.718280000000     0.0618519  
C82      C      0.775450000000     0.941460000000     0.727760000000    -0.0623748  
C83      C      0.773930000000     0.981230000000     0.680330000000    -0.0542297  
C84      C      0.766010000000     0.917670000000     0.751120000000     0.118279   
C85      C      0.722720000000     0.916290000000     0.752460000000    -0.00217613 
C86      C      0.795270000000     0.024760000000     0.722890000000    -0.0552699  
C87      C      0.947610000000     0.290570000000     0.611560000000    -0.032357   
C88      C      0.963610000000     0.406540000000     0.528770000000    -0.0307371  
C89      C      0.018540000000     0.439790000000     0.528710000000    -0.00443118 
C90      C      0.974330000000     0.434960000000     0.525990000000    -0.00425407 
C91      C      0.966670000000     0.368750000000     0.596420000000    -0.0523691  
C92      C      0.948690000000     0.330580000000     0.544410000000    -0.051873   
C93      C      0.969660000000     0.375140000000     0.559740000000     0.0627912  
C94      C      0.005400000000     0.411020000000     0.531330000000    -0.0306152  
C95      C      0.945190000000     0.324160000000     0.581130000000     0.061924   
C96      C      0.908520000000     0.291290000000     0.611770000000    -0.0626812  
C97      C      0.954670000000     0.343530000000     0.607160000000    -0.0545863  
C98      C      0.892250000000     0.262610000000     0.617130000000     0.118223   
C99      C      0.934620000000     0.261920000000     0.613570000000    -0.000379906
C100     C      0.960930000000     0.355850000000     0.533670000000    -0.0553442  
C101     C      0.150090000000     0.755140000000     0.418080000000    -0.0329434  
C102     C      0.052320000000     0.621800000000     0.431750000000    -0.0307168  
C103     C      0.085100000000     0.599870000000     0.425790000000    -0.00542822 
C104     C      0.040980000000     0.593990000000     0.421630000000    -0.00514237 
C105     C      0.092800000000     0.674670000000     0.456670000000    -0.054951   
C106     C      0.107600000000     0.704100000000     0.393990000000    -0.0547464  
C107     C      0.089180000000     0.663040000000     0.422670000000     0.0625029  
C108     C      0.094790000000     0.627400000000     0.435830000000    -0.0303232  
C109     C      0.111590000000     0.715820000000     0.428010000000     0.0630025  
C110     C      0.109420000000     0.753360000000     0.414490000000    -0.0624935  
C111     C      0.103940000000     0.700860000000     0.459190000000    -0.0527321  
C112     C      0.121520000000     0.781830000000     0.421880000000     0.118936   
C113     C      0.163650000000     0.783030000000     0.427640000000    -0.00176687 
C114     C      0.096510000000     0.677950000000     0.391490000000    -0.0513326  
C115     C      0.621010000000     0.604930000000     0.902230000000    -0.0341701  
C116     C      0.636670000000     0.726460000000     0.843440000000    -0.0308118  
C117     C      0.688660000000     0.760820000000     0.866240000000    -0.00472441 
C118     C      0.645570000000     0.754400000000     0.848940000000    -0.00420149 
C119     C      0.626570000000     0.678060000000     0.898720000000    -0.0522605  
C120     C      0.632500000000     0.652770000000     0.840010000000    -0.0521264  
C121     C      0.639990000000     0.691770000000     0.868210000000     0.0628135  
C122     C      0.678000000000     0.732560000000     0.860590000000    -0.0307943  
C123     C      0.619650000000     0.639180000000     0.870880000000     0.0633395  
C124     C      0.582430000000     0.597320000000     0.869140000000    -0.0695569  
C125     C      0.616250000000     0.651930000000     0.900030000000    -0.0549464  
C126     C      0.575120000000     0.569750000000     0.864240000000     0.132055   
C127     C      0.612970000000     0.576870000000     0.899610000000    -0.0024153  
C128     C      0.642410000000     0.678810000000     0.838430000000    -0.0545157  
C129     C      0.313500000000     0.078190000000     0.202220000000    -0.0324062  
C130     C      0.225130000000     0.971920000000     0.315430000000    -0.0301307  
C131     C      0.248640000000     0.940350000000     0.317190000000    -0.00418489 
C132     C      0.208600000000     0.944060000000     0.324780000000    -0.00472768 
C133     C      0.258130000000     0.001870000000     0.236710000000    -0.0519477  
C134     C      0.281220000000     0.045720000000     0.278520000000    -0.0516504  
C135     C      0.258210000000     0.999960000000     0.274400000000     0.0628626  
C136     C      0.262750000000     0.968560000000     0.308440000000    -0.0304714  
C137     C      0.280590000000     0.047630000000     0.240860000000     0.0622023  
C138     C      0.272780000000     0.075460000000     0.203400000000    -0.0630544  
C139     C      0.269340000000     0.025450000000     0.219950000000    -0.054555   
C140     C      0.283610000000     0.103110000000     0.191770000000     0.119196   
C141     C      0.328020000000     0.106380000000     0.194180000000     0.000739054
C142     C      0.270290000000     0.022110000000     0.295270000000    -0.0550264  
C143     C      0.418250000000     0.304660000000     0.140050000000    -0.0324717  
C144     C      0.448890000000     0.419360000000     0.038430000000    -0.0312288  
C145     C      0.502140000000     0.433340000000     0.031860000000    -0.00467509 
C146     C      0.468700000000     0.446800000000     0.029850000000    -0.00437777 
C147     C      0.428670000000     0.362360000000     0.052040000000    -0.0550346  
C148     C      0.425800000000     0.356310000000     0.127110000000    -0.0548857  
C149     C      0.442450000000     0.383450000000     0.074520000000     0.0624343  
C150     C      0.480840000000     0.406730000000     0.039950000000    -0.0306513  
C151     C      0.413360000000     0.335010000000     0.104600000000     0.062405   
C152     C      0.378520000000     0.304050000000     0.140650000000    -0.0626632  
C153     C      0.414380000000     0.338340000000     0.067080000000    -0.0522146  
C154     C      0.363110000000     0.275660000000     0.148920000000     0.11932    
C155     C      0.406350000000     0.276450000000     0.146570000000     0.000364465
C156     C      0.440350000000     0.380280000000     0.112060000000    -0.0522981  
C157     C      0.726280000000     0.829330000000     0.652410000000    -0.0327282  
C158     C      0.678790000000     0.831530000000     0.470370000000    -0.0307744  
C159     C      0.720880000000     0.876300000000     0.438090000000    -0.00483839 
C160     C      0.674500000000     0.842920000000     0.436180000000    -0.00481664 
C161     C      0.705560000000     0.821640000000     0.531160000000    -0.0541366  
C162     C      0.701030000000     0.845820000000     0.592440000000    -0.0543721  
C163     C      0.701740000000     0.842390000000     0.527100000000     0.062806   
C164     C      0.723530000000     0.863530000000     0.472120000000    -0.030831   
C165     C      0.703500000000     0.824270000000     0.596440000000     0.0641201  
C166     C      0.679630000000     0.806880000000     0.651850000000    -0.0653946  
C167     C      0.706180000000     0.812570000000     0.565590000000    -0.0519704  
C168     C      0.678980000000     0.792610000000     0.686110000000     0.12151    
C169     C      0.726150000000     0.815590000000     0.687220000000    -0.00425843 
C170     C      0.699930000000     0.854600000000     0.557990000000    -0.0514385  
C171     C      0.679840000000     0.843410000000     0.145610000000    -0.0313909  
C172     C      0.729210000000     0.877320000000     0.961440000000    -0.0305039  
C173     C      0.683810000000     0.858320000000     0.916320000000    -0.00451081 
C174     C      0.730610000000     0.868690000000     0.923270000000    -0.00391791 
C175     C      0.701040000000     0.843110000000     0.034800000000    -0.0518893  
C176     C      0.702640000000     0.884380000000     0.069590000000    -0.0520176  
C177     C      0.702260000000     0.862850000000     0.014160000000     0.0627531  
C178     C      0.685650000000     0.866680000000     0.955750000000    -0.0303835  
C179     C      0.701040000000     0.864430000000     0.090250000000     0.0628702  
C180     C      0.725100000000     0.870870000000     0.144800000000    -0.0614468  
C181     C      0.700700000000     0.843920000000     0.072460000000    -0.0547334  
C182     C      0.726310000000     0.876860000000     0.185320000000     0.118487   
C183     C      0.677680000000     0.848030000000     0.185560000000    -0.00276229 
C184     C      0.703530000000     0.883800000000     0.031840000000    -0.054543   
C185     C      0.769050000000     0.816830000000     0.282990000000    -0.0331745  
C186     C      0.793410000000     0.720840000000     0.203950000000    -0.0305291  
C187     C      0.840530000000     0.754410000000     0.166310000000    -0.00508255 
C188     C      0.802930000000     0.710250000000     0.174210000000    -0.005338   
C189     C      0.776130000000     0.767800000000     0.204360000000    -0.0509747  
C190     C      0.781030000000     0.768010000000     0.279490000000    -0.0525889  
C191     C      0.789860000000     0.757410000000     0.219900000000     0.0623262  
C192     C      0.829450000000     0.762910000000     0.196650000000    -0.0305717  
C193     C      0.767210000000     0.778310000000     0.263940000000     0.0636821  
C194     C      0.728620000000     0.777570000000     0.282880000000    -0.063088   
C195     C      0.764990000000     0.778300000000     0.226050000000    -0.0544837  
C196     C      0.717580000000     0.787890000000     0.311070000000     0.118819   
C197     C      0.759470000000     0.827970000000     0.311710000000    -0.00299747 
C198     C      0.792410000000     0.757750000000     0.257760000000    -0.0543623  
C199     C      0.630720000000     0.906830000000     0.309150000000    -0.0322748  
C200     C      0.604970000000     0.007410000000     0.361150000000    -0.0306459  
C201     C      0.549930000000     0.978770000000     0.353330000000    -0.00538568 
C202     C      0.590050000000     0.021380000000     0.357770000000    -0.00510237 
C203     C      0.613140000000     0.966690000000     0.304130000000    -0.0519878  
C204     C      0.628050000000     0.950280000000     0.365060000000    -0.0521445  
C205     C      0.606780000000     0.971200000000     0.338570000000     0.062716   
C206     C      0.566550000000     0.966650000000     0.357010000000    -0.0304015  
C207     C      0.634120000000     0.945460000000     0.330580000000     0.0622665  
C208     C      0.671310000000     0.944690000000     0.308900000000    -0.0624104  
C209     C      0.626660000000     0.953920000000     0.300020000000    -0.054471   
C210     C      0.685990000000     0.930210000000     0.310920000000     0.117994   
C211     C      0.641810000000     0.889620000000     0.314520000000    -0.000696723
C212     C      0.614480000000     0.963020000000     0.369150000000    -0.0551384  
C213     C      0.049720000000     0.562280000000     0.817660000000    -0.0321975  
C214     C      0.009000000000     0.534000000000     0.627920000000    -0.0310589  
C215     C      0.057470000000     0.556190000000     0.590230000000    -0.00528277 
C216     C      0.010610000000     0.541300000000     0.587990000000    -0.00506988 
C217     C      0.031330000000     0.565960000000     0.706430000000    -0.052686   
C218     C      0.029330000000     0.523770000000     0.738910000000    -0.0523379  
C219     C      0.031530000000     0.547330000000     0.684720000000     0.0620922  
C220     C      0.054290000000     0.548590000000     0.630070000000    -0.0306441  
C221     C      0.029890000000     0.542750000000     0.760670000000     0.061916   
C222     C      0.004950000000     0.533400000000     0.815170000000    -0.0629057  
C223     C      0.030210000000     0.563630000000     0.744060000000    -0.0549054  
C224     C      0.003540000000     0.524570000000     0.854420000000     0.119499   
C225     C      0.052260000000     0.555940000000     0.856820000000    -0.000387934
C226     C      0.029860000000     0.525820000000     0.701270000000    -0.0551238  
C227     C      0.005300000000     0.475340000000     0.314380000000    -0.0324047  
C228     C      0.057790000000     0.509710000000     0.130370000000    -0.0307523  
C229     C      0.013760000000     0.473890000000     0.088770000000    -0.00512796 
C230     C      0.060770000000     0.505100000000     0.090480000000    -0.00542395 
C231     C      0.031930000000     0.468030000000     0.206320000000    -0.0525127  
C232     C      0.034080000000     0.509830000000     0.240200000000    -0.0523865  
C233     C      0.034920000000     0.488370000000     0.185280000000     0.062082   
C234     C      0.012390000000     0.480010000000     0.128520000000    -0.0308207  
C235     C      0.031870000000     0.489810000000     0.261310000000     0.0616722  
C236     C      0.048890000000     0.486070000000     0.319030000000    -0.0631298  
C237     C      0.030050000000     0.468500000000     0.243920000000    -0.0548715  
C238     C      0.050220000000     0.492180000000     0.359630000000     0.119143   
C239     C      0.003870000000     0.483530000000     0.352860000000     0.000772612
C240     C      0.035230000000     0.509030000000     0.202510000000    -0.0552922  
C241     C      0.915210000000     0.630810000000     0.084720000000    -0.0320605  
C242     C      0.012200000000     0.601240000000     0.024870000000    -0.0309175  
C243     C      0.979370000000     0.546600000000     0.025180000000    -0.00380133 
C244     C      0.024160000000     0.584380000000     0.026510000000    -0.00392304 
C245     C      0.969890000000     0.615010000000     0.019010000000    -0.0553656  
C246     C      0.961200000000     0.624470000000     0.089960000000    -0.0546021  
C247     C      0.976930000000     0.604940000000     0.048090000000     0.0627355  
C248     C      0.969630000000     0.565250000000     0.023550000000    -0.0307337  
C249     C      0.953400000000     0.633910000000     0.060910000000     0.0619235  
C250     C      0.954220000000     0.670650000000     0.086600000000    -0.061903   
C251     C      0.958150000000     0.629310000000     0.025490000000    -0.05198    
C252     C      0.940170000000     0.685770000000     0.088330000000     0.117634   
C253     C      0.898930000000     0.643250000000     0.083820000000    -0.00316245 
C254     C      0.972800000000     0.610090000000     0.083470000000    -0.052663   
C255     C      0.326190000000     0.131570000000     0.826980000000    -0.0326212  
C256     C      0.366960000000     0.176230000000     0.012030000000    -0.0303984  
C257     C      0.322720000000     0.175690000000     0.043450000000    -0.0048427  
C258     C      0.369950000000     0.190830000000     0.046800000000    -0.00482285 
C259     C      0.345580000000     0.180180000000     0.924540000000    -0.0519778  
C260     C      0.346490000000     0.135570000000     0.912470000000    -0.0522726  
C261     C      0.345500000000     0.165810000000     0.954060000000     0.0628192  
C262     C      0.321860000000     0.161540000000     0.008860000000    -0.0302011  
C263     C      0.347720000000     0.150520000000     0.883020000000     0.063207   
C264     C      0.371580000000     0.162840000000     0.826630000000    -0.0645038  
C265     C      0.346320000000     0.172490000000     0.889250000000    -0.0546722  
C266     C      0.375070000000     0.152070000000     0.791200000000     0.118465   
C267     C      0.328960000000     0.120310000000     0.791450000000    -0.00470243 
C268     C      0.345030000000     0.142900000000     0.947720000000    -0.0547042  
C269     C      0.324510000000     0.161340000000     0.512300000000    -0.0333049  
C270     C      0.322080000000     0.201430000000     0.328490000000    -0.029611   
C271     C      0.365520000000     0.200260000000     0.297510000000    -0.0042233  
C272     C      0.331160000000     0.211920000000     0.290520000000    -0.00643508 
C273     C      0.358380000000     0.211420000000     0.413040000000    -0.0508503  
C274     C      0.310130000000     0.177550000000     0.439260000000    -0.0518839  
C275     C      0.338270000000     0.198990000000     0.388570000000     0.0631135  
C276     C      0.354470000000     0.189520000000     0.334700000000    -0.030876   
C277     C      0.330200000000     0.190140000000     0.463750000000     0.0633266  
C278     C      0.341450000000     0.205680000000     0.526350000000    -0.064085   
C279     C      0.354640000000     0.206690000000     0.450090000000    -0.0535368  
C280     C      0.331230000000     0.199450000000     0.565050000000     0.118667   
C281     C      0.313190000000     0.153540000000     0.550170000000    -0.00250874 
C282     C      0.314120000000     0.181390000000     0.402080000000    -0.0538866  
C283     C      0.383960000000     0.094610000000     0.604010000000    -0.0325024  
C284     C      0.482430000000     0.096620000000     0.486190000000    -0.0307876  
C285     C      0.459220000000     0.042780000000     0.470660000000    -0.00364642 
C286     C      0.499640000000     0.086410000000     0.474060000000    -0.00348674 
C287     C      0.434700000000     0.098140000000     0.507600000000    -0.0551564  
C288     C      0.431520000000     0.093200000000     0.582840000000    -0.0542901  
C289     C      0.446800000000     0.086720000000     0.525540000000     0.0632191  
C290     C      0.444640000000     0.055870000000     0.482660000000    -0.030414   
C291     C      0.419560000000     0.104830000000     0.565000000000     0.0622666  
C292     C      0.422010000000     0.134700000000     0.609590000000    -0.0620213  
C293     C      0.421260000000     0.107160000000     0.527300000000    -0.0514136  
C294     C      0.408010000000     0.147590000000     0.625470000000     0.116445   
C295     C      0.366740000000     0.104510000000     0.616830000000    -0.000271689
C296     C      0.445020000000     0.084300000000     0.563170000000    -0.0520193  
C297     C      0.101380000000     0.360440000000     0.846040000000    -0.0319754  
C298     C      0.094620000000     0.468960000000     0.916580000000    -0.0306644  
C299     C      0.039930000000     0.449230000000     0.917720000000    -0.00511085 
C300     C      0.084580000000     0.487380000000     0.918100000000    -0.00504838 
C301     C      0.095530000000     0.419930000000     0.916050000000    -0.0546684  
C302     C      0.099270000000     0.409450000000     0.843490000000    -0.0551328  
C303     C      0.086990000000     0.430020000000     0.888840000000     0.062363   
C304     C      0.052260000000     0.432710000000     0.916310000000    -0.0305373  
C305     C      0.108410000000     0.399890000000     0.870650000000     0.0630542  
C306     C      0.142090000000     0.397570000000     0.839090000000    -0.0617073  
C307     C      0.106260000000     0.405110000000     0.906900000000    -0.0519974  
C308     C      0.156010000000     0.382390000000     0.836070000000     0.118618   
C309     C      0.111940000000     0.342500000000     0.847700000000     0.0014954  
C310     C      0.088800000000     0.424490000000     0.852630000000    -0.0520078  
C311     C      0.240680000000     0.272870000000     0.838990000000    -0.0320178  
C312     C      0.260660000000     0.177760000000     0.747380000000    -0.0302867  
C313     C      0.310230000000     0.212720000000     0.716960000000    -0.00643399 
C314     C      0.270830000000     0.169350000000     0.715650000000    -0.00533793 
C315     C      0.261140000000     0.212140000000     0.808440000000    -0.0547768  
C316     C      0.234480000000     0.234880000000     0.781250000000    -0.0544226  
C317     C      0.258640000000     0.213680000000     0.770830000000     0.0630933  
C318     C      0.298430000000     0.219140000000     0.748650000000    -0.0294104  
C319     C      0.237540000000     0.233940000000     0.818840000000     0.0632025  
C320     C      0.200270000000     0.233270000000     0.843430000000    -0.0632702  
C321     C      0.250690000000     0.222270000000     0.832160000000    -0.0523967  
C322     C      0.191070000000     0.244460000000     0.872980000000     0.118451   
C323     C      0.232320000000     0.284520000000     0.868580000000    -0.00453877 
C324     C      0.245030000000     0.224860000000     0.757560000000    -0.051892   
C325     C      0.504550000000     0.504460000000     0.616900000000    -0.0314728  
C326     C      0.515530000000     0.465450000000     0.801020000000    -0.0292614  
C327     C      0.503680000000     0.498210000000     0.844040000000    -0.0353398  
C328     C      0.525830000000     0.471670000000     0.839540000000    -0.00376864 
C329     C      0.488850000000     0.466360000000     0.730830000000    -0.0546545  
C330     C      0.528070000000     0.501810000000     0.687410000000    -0.0535751  
C331     C      0.511280000000     0.485290000000     0.746960000000     0.0647701  
C332     C      0.496090000000     0.491400000000     0.804410000000    -0.0159439  
C333     C      0.505510000000     0.483080000000     0.671200000000     0.0631232  
C334     C      0.519660000000     0.474830000000     0.614710000000    -0.061098   
C335     C      0.486040000000     0.465370000000     0.693250000000    -0.0508645  
C336     C      0.513600000000     0.469520000000     0.574220000000     0.11668    
C337     C      0.496230000000     0.500070000000     0.577460000000    -0.00344245 
C338     C      0.530790000000     0.502890000000     0.724930000000    -0.0506635  
C339     C      0.539220000000     0.499950000000     0.289550000000    -0.03177    
C340     C      0.551480000000     0.546890000000     0.103850000000    -0.0307407  
C341     C      0.584630000000     0.530490000000     0.071920000000    -0.00552155 
C342     C      0.564510000000     0.557420000000     0.067560000000    -0.00473217 
C343     C      0.572990000000     0.544240000000     0.191490000000    -0.0515464  
C344     C      0.522730000000     0.506940000000     0.204300000000    -0.0522254  
C345     C      0.556960000000     0.532020000000     0.162180000000     0.0625943  
C346     C      0.571060000000     0.520290000000     0.108130000000    -0.0306936  
C347     C      0.538580000000     0.519640000000     0.233610000000     0.062683   
C348     C      0.531930000000     0.535180000000     0.290390000000    -0.0619721  
C349     C      0.564070000000     0.537980000000     0.226900000000    -0.0541641  
C350     C      0.518460000000     0.527600000000     0.327310000000     0.117707   
C351     C      0.524290000000     0.488950000000     0.324280000000    -0.00289983 
C352     C      0.531840000000     0.512810000000     0.168870000000    -0.0548014  
C353     C      0.896150000000     0.192900000000     0.798910000000    -0.0315057  
C354     C      0.867250000000     0.188180000000     0.992160000000    -0.0313355  
C355     C      0.839090000000     0.135050000000     0.012510000000    -0.0038507  
C356     C      0.852460000000     0.180780000000     0.027670000000    -0.00249137 
C357     C      0.878780000000     0.170290000000     0.910610000000    -0.0538339  
C358     C      0.857330000000     0.195190000000     0.874400000000    -0.0521508  
C359     C      0.861900000000     0.175840000000     0.929090000000     0.0629159  
C360     C      0.853800000000     0.144840000000     0.977250000000    -0.0309243  
C361     C      0.872400000000     0.187850000000     0.855060000000     0.0628624  
C362     C      0.850470000000     0.169080000000     0.799960000000    -0.0623385  
C363     C      0.883330000000     0.175490000000     0.873760000000    -0.05355    
C364     C      0.848100000000     0.174480000000     0.760220000000     0.119181   
C365     C      0.896780000000     0.199610000000     0.759010000000    -0.00364779 
C366     C      0.851790000000     0.188880000000     0.910770000000    -0.0520762  
C367     C      0.834430000000     0.105190000000     0.293350000000    -0.0335557  
C368     C      0.845700000000     0.159950000000     0.471690000000    -0.0306266  
C369     C      0.882900000000     0.154650000000     0.515020000000    -0.00467333 
C370     C      0.843020000000     0.159120000000     0.512610000000    -0.00395075 
C371     C      0.833480000000     0.115470000000     0.411210000000    -0.0518416  
C372     C      0.861420000000     0.152730000000     0.360040000000    -0.0526191  
C373     C      0.853190000000     0.138920000000     0.422630000000     0.0627742  
C374     C      0.882540000000     0.154880000000     0.473650000000    -0.0305959  
C375     C      0.841290000000     0.129490000000     0.348760000000     0.0634485  
C376     C      0.809640000000     0.126240000000     0.306360000000    -0.0647755  
C377     C      0.827370000000     0.110790000000     0.374650000000    -0.0550118  
C378     C      0.807170000000     0.131130000000     0.266420000000     0.122403   
C379     C      0.818040000000     0.096430000000     0.258800000000    -0.00130864 
C380     C      0.867250000000     0.157590000000     0.396700000000    -0.0549576  
C381     C      0.139180000000     0.300720000000     0.514590000000    -0.0327567  
C382     C      0.133260000000     0.267230000000     0.704520000000    -0.0303421  
C383     C      0.181180000000     0.311100000000     0.725510000000    -0.00428335 
C384     C      0.144360000000     0.268080000000     0.741930000000    -0.00538001 
C385     C      0.161000000000     0.276990000000     0.615030000000    -0.0518751  
C386     C      0.117220000000     0.277700000000     0.594160000000    -0.052089   
C387     C      0.145640000000     0.279000000000     0.641490000000     0.063064   
C388     C      0.168190000000     0.308680000000     0.689190000000    -0.030548   
C389     C      0.132460000000     0.275480000000     0.567730000000     0.0630071  
C390     C      0.128450000000     0.256830000000     0.507730000000    -0.0642244  
C391     C      0.154810000000     0.275700000000     0.578460000000    -0.0541899  
C392     C      0.117530000000     0.255650000000     0.469930000000     0.118949   
C393     C      0.128120000000     0.300440000000     0.477390000000    -0.00432864 
C394     C      0.123900000000     0.279910000000     0.630640000000    -0.0546132  
C395     C      0.165860000000     0.330680000000     0.019780000000    -0.0323944  
C396     C      0.189400000000     0.345790000000     0.202090000000    -0.0304399  
C397     C      0.192080000000     0.304580000000     0.238130000000    -0.00393758 
C398     C      0.178160000000     0.338250000000     0.239910000000    -0.00450932 
C399     C      0.176990000000     0.305280000000     0.122780000000    -0.0524875  
C400     C      0.207220000000     0.352160000000     0.090230000000    -0.0531236  
C401     C      0.190810000000     0.326550000000     0.144530000000     0.0628843  
C402     C      0.203200000000     0.315180000000     0.200880000000    -0.0308208  
C403     C      0.192490000000     0.330840000000     0.068330000000     0.0622164  
C404     C      0.211000000000     0.353890000000     0.011120000000    -0.0628811  
C405     C      0.178160000000     0.307320000000     0.085200000000    -0.0514735  
C406     C      0.207290000000     0.352680000000     0.969530000000     0.118641   
C407     C      0.159540000000     0.321200000000     0.981130000000     0.00343457 
C408     C      0.206930000000     0.349870000000     0.127820000000    -0.0539961  
C409     C      0.943080000000     0.211280000000     0.188770000000    -0.0322557  
C410     C      0.055380000000     0.226820000000     0.285530000000    -0.0302456  
C411     C      0.079010000000     0.280520000000     0.302030000000    -0.00409655 
C412     C      0.083730000000     0.241370000000     0.294200000000    -0.00493822 
C413     C      0.001140000000     0.215630000000     0.273110000000    -0.055551   
C414     C      0.996640000000     0.220360000000     0.198670000000    -0.0543767  
C415     C      0.022990000000     0.230360000000     0.252230000000     0.0630029  
C416     C      0.050930000000     0.263570000000     0.293040000000    -0.0305397  
C417     C      0.974740000000     0.205540000000     0.219480000000     0.0620461  
C418     C      0.946700000000     0.174820000000     0.175860000000    -0.0627247  
C419     C      0.977240000000     0.203300000000     0.256720000000    -0.0517399  
C420     C      0.918800000000     0.159040000000     0.163940000000     0.118825   
C421     C      0.914700000000     0.198080000000     0.181320000000     0.000148966
C422     C      0.020510000000     0.232570000000     0.215010000000    -0.0524999  
C423     C      0.394880000000     0.447670000000     0.443300000000    -0.031935   
C424     C      0.268820000000     0.340470000000     0.404070000000    -0.0304518  
C425     C      0.237820000000     0.364280000000     0.411760000000    -0.00511356 
C426     C      0.240240000000     0.324150000000     0.410140000000    -0.00536852 
C427     C      0.318030000000     0.386120000000     0.455260000000    -0.0517471  
C428     C      0.346410000000     0.401960000000     0.391510000000    -0.0516861  
C429     C      0.305540000000     0.379760000000     0.421900000000     0.0629195  
C430     C      0.266530000000     0.378970000000     0.405660000000    -0.0306185  
C431     C      0.358930000000     0.408350000000     0.424900000000     0.0627077  
C432     C      0.397970000000     0.410030000000     0.442760000000    -0.0619242  
C433     C      0.344470000000     0.400310000000     0.456900000000    -0.0542427  
C434     C      0.427050000000     0.424770000000     0.438670000000     0.117038   
C435     C      0.423090000000     0.464870000000     0.436380000000    -0.00217446 
C436     C      0.319940000000     0.387800000000     0.389890000000    -0.0546414  
C437     C      0.546090000000     0.032440000000     0.756010000000    -0.0315274  
C438     C      0.526070000000     0.992070000000     0.566050000000    -0.0306695  
C439     C      0.556960000000     0.041080000000     0.531230000000    -0.00438077 
C440     C      0.518670000000     0.995550000000     0.527840000000    -0.00431802 
C441     C      0.521240000000     0.016730000000     0.645730000000    -0.0516748  
C442     C      0.556640000000     0.006300000000     0.677820000000    -0.0520922  
C443     C      0.538110000000     0.013400000000     0.623900000000     0.0627518  
C444     C      0.561360000000     0.034330000000     0.569270000000    -0.0304238  
C445     C      0.540160000000     0.010270000000     0.699730000000     0.0626451  
C446     C      0.519680000000     0.986970000000     0.753710000000    -0.059897   
C447     C      0.522040000000     0.015000000000     0.683240000000    -0.0543568  
C448     C      0.522770000000     0.984260000000     0.794500000000     0.110539   
C449     C      0.551670000000     0.031990000000     0.796030000000    -0.00392588 
C450     C      0.555550000000     0.007630000000     0.640150000000    -0.054822   
C451     C      0.528550000000     0.066870000000     0.255140000000    -0.0333133  
C452     C      0.488700000000     0.033400000000     0.069250000000    -0.029326   
C453     C      0.497790000000     0.994220000000     0.040460000000    -0.0048849  
C454     C      0.497050000000     0.035650000000     0.029860000000    -0.00560245 
C455     C      0.520020000000     0.050710000000     0.141720000000    -0.0534939  
C456     C      0.486630000000     0.014640000000     0.190320000000    -0.0497092  
C457     C      0.501590000000     0.027150000000     0.128630000000     0.0641226  
C458     C      0.491030000000     0.995870000000     0.079820000000    -0.0299119  
C459     C      0.504660000000     0.038560000000     0.203630000000     0.059967   
C460     C      0.482980000000     0.039460000000     0.259260000000    -0.0643969  
C461     C      0.521490000000     0.056530000000     0.178420000000    -0.0507413  
C462     C      0.483340000000     0.033140000000     0.299300000000     0.121657   
C463     C      0.527640000000     0.071570000000     0.296040000000    -0.000922312
C464     C      0.484470000000     0.009250000000     0.153340000000    -0.055378   
C465     C      0.611650000000     0.024010000000     0.983140000000    -0.0316858  
C466     C      0.725790000000     0.105940000000     0.088490000000    -0.0300072  
C467     C      0.745440000000     0.073240000000     0.110600000000    -0.00546279 
C468     C      0.743910000000     0.113220000000     0.120630000000    -0.00563093 
C469     C      0.665670000000     0.057850000000     0.071050000000    -0.0522729  
C470     C      0.675830000000     0.068880000000     0.997550000000    -0.0521284  
C471     C      0.690830000000     0.070460000000     0.059000000000     0.0632333  
C472     C      0.727170000000     0.067260000000     0.078840000000    -0.0301176  
C473     C      0.650660000000     0.056480000000     0.009650000000     0.0624399  
C474     C      0.618520000000     0.066130000000     0.991260000000    -0.0619331  
C475     C      0.645720000000     0.050950000000     0.046730000000    -0.0543262  
C476     C      0.599360000000     0.062660000000     0.961540000000     0.117436   
C477     C      0.593340000000     0.018730000000     0.951860000000    -0.00420305 
C478     C      0.695820000000     0.075890000000     0.021940000000    -0.0550193  
C479     C      0.218780000000     0.871210000000     0.529410000000    -0.0330984  
C480     C      0.188660000000     0.883820000000     0.718050000000    -0.0305467  
C481     C      0.178220000000     0.836100000000     0.750440000000    -0.00464038 
C482     C      0.174240000000     0.875700000000     0.753790000000    -0.00510231 
C483     C      0.174910000000     0.854910000000     0.631720000000    -0.0518364  
C484     C      0.224280000000     0.892640000000     0.615140000000    -0.0528989  
C485     C      0.192090000000     0.867560000000     0.659770000000     0.0619572  
C486     C      0.192790000000     0.846580000000     0.715030000000    -0.0308676  
C487     C      0.206770000000     0.880730000000     0.587160000000     0.0629199  
C488     C      0.197310000000     0.896070000000     0.531910000000    -0.0651782  
C489     C      0.182190000000     0.861160000000     0.595670000000    -0.0550908  
C490     C      0.208690000000     0.908150000000     0.495420000000     0.120544   
C491     C      0.230350000000     0.882690000000     0.492540000000    -0.00421786 
C492     C      0.217180000000     0.885940000000     0.651160000000    -0.0549301  
C493     C      0.133350000000     0.835360000000     0.227420000000    -0.0319257  
C494     C      0.150940000000     0.817400000000     0.035900000000    -0.0307279  
C495     C      0.133470000000     0.847460000000     0.997300000000    -0.0057615  
C496     C      0.141390000000     0.810610000000     0.997000000000    -0.00486329 
C497     C      0.123940000000     0.813610000000     0.115620000000    -0.0518753  
C498     C      0.168970000000     0.852420000000     0.144640000000    -0.0521266  
C499     C      0.142440000000     0.831350000000     0.092450000000     0.0627581  
C500     C      0.142920000000     0.852560000000     0.036370000000    -0.0302821  
C501     C      0.150170000000     0.835100000000     0.167890000000     0.0625296  
C502     C      0.162610000000     0.820210000000     0.220110000000    -0.0629329  
C503     C      0.127840000000     0.815170000000     0.152960000000    -0.0541902  
C504     C      0.173790000000     0.828160000000     0.258220000000     0.120425   
C505     C      0.141730000000     0.844390000000     0.266090000000    -0.000589538
C506     C      0.165380000000     0.850420000000     0.107240000000    -0.0549295  
C507     C      0.404930000000     0.982720000000     0.897290000000    -0.0334429  
C508     C      0.273460000000     0.877180000000     0.888970000000    -0.0310995  
C509     C      0.246780000000     0.901890000000     0.917480000000    -0.00497819 
C510     C      0.246410000000     0.861410000000     0.903490000000    -0.00479876 
C511     C      0.331310000000     0.919520000000     0.925180000000    -0.0522604  
C512     C      0.347260000000     0.940100000000     0.856270000000    -0.0531199  
C513     C      0.313200000000     0.915600000000     0.898720000000     0.0619842  
C514     C      0.273820000000     0.916300000000     0.902700000000    -0.0308229  
C515     C      0.365330000000     0.944520000000     0.882950000000     0.0637559  
C516     C      0.405410000000     0.945930000000     0.871440000000    -0.0642559  
C517     C      0.357220000000     0.933730000000     0.917380000000    -0.0554366  
C518     C      0.431300000000     0.963310000000     0.854610000000     0.11521    
C519     C      0.431720000000     0.000510000000     0.882740000000    -0.003501   
C520     C      0.321400000000     0.925640000000     0.863890000000    -0.0546211  
C521     C      0.818190000000     0.665640000000     0.789320000000    -0.0337404  
C522     C      0.859780000000     0.715480000000     0.972710000000    -0.0306443  
C523     C      0.824170000000     0.674870000000     0.019420000000    -0.00471585 
C524     C      0.856890000000     0.720900000000     0.012160000000    -0.00511192 
C525     C      0.818040000000     0.692250000000     0.899350000000    -0.0521946  
C526     C      0.855270000000     0.684780000000     0.866840000000    -0.0522324  
C527     C      0.836190000000     0.690810000000     0.920890000000     0.0626987  
C528     C      0.828370000000     0.671020000000     0.979720000000    -0.0308082  
C529     C      0.837610000000     0.687050000000     0.845210000000     0.0625802  
C530     C      0.845020000000     0.711060000000     0.790230000000    -0.078028   
C531     C      0.818550000000     0.690220000000     0.861840000000    -0.0547854  
C532     C      0.850420000000     0.711680000000     0.749140000000     0.169283   
C533     C      0.824490000000     0.663610000000     0.749960000000    -0.00220422 
C534     C      0.854500000000     0.686410000000     0.904420000000    -0.0550563  
C535     C      0.883660000000     0.725260000000     0.469830000000    -0.0318131  
C536     C      0.911540000000     0.725620000000     0.283840000000    -0.0305269  
C537     C      0.887420000000     0.675860000000     0.250620000000    -0.00478417 
C538     C      0.918030000000     0.722360000000     0.244980000000    -0.00500082 
C539     C      0.880760000000     0.707970000000     0.355590000000    -0.0547518  
C540     C      0.915800000000     0.707690000000     0.404260000000    -0.0516635  
C541     C      0.901340000000     0.705810000000     0.342580000000     0.0634641  
C542     C      0.882000000000     0.680380000000     0.289330000000    -0.0305006  
C543     C      0.894780000000     0.708790000000     0.417440000000     0.0626039  
C544     C      0.870890000000     0.681230000000     0.465900000000    -0.0624552  
C545     C      0.877230000000     0.708940000000     0.392670000000    -0.0540288  
C546     C      0.869570000000     0.677820000000     0.507030000000     0.118875   
C547     C      0.883800000000     0.725050000000     0.511050000000    -0.00330691 
C548     C      0.919010000000     0.706120000000     0.367160000000    -0.0524192  
C549     C      0.623950000000     0.582650000000     0.475310000000    -0.0313803  
C550     C      0.740900000000     0.610900000000     0.571570000000    -0.0288515  
C551     C      0.765960000000     0.665810000000     0.575610000000    -0.00454928 
C552     C      0.769550000000     0.625750000000     0.577740000000    -0.00699202 
C553     C      0.686630000000     0.598840000000     0.559810000000    -0.0545355  
C554     C      0.679150000000     0.595900000000     0.484980000000    -0.0542024  
C555     C      0.707570000000     0.611480000000     0.536520000000     0.0638203  
C556     C      0.737490000000     0.648510000000     0.569850000000    -0.0300306  
C557     C      0.658230000000     0.582760000000     0.508210000000     0.0636466  
C558     C      0.630210000000     0.547030000000     0.471280000000    -0.0618029  
C559     C      0.662190000000     0.584510000000     0.545630000000    -0.051087   
C560     C      0.602170000000     0.528630000000     0.462540000000     0.118761   
C561     C      0.595290000000     0.567160000000     0.470230000000     0.000391535
C562     C      0.703580000000     0.610010000000     0.499140000000    -0.0511208  
C563     C      0.955620000000     0.733340000000     0.689790000000    -0.0316377  
C564     C      0.061220000000     0.816470000000     0.804880000000    -0.0312038  
C565     C      0.071500000000     0.786820000000     0.856290000000    -0.00528507 
C566     C      0.079340000000     0.829520000000     0.836300000000    -0.00376942 
C567     C      0.012830000000     0.758290000000     0.771220000000    -0.0531392  
C568     C      0.986350000000     0.784070000000     0.760160000000    -0.0519042  
C569     C      0.019960000000     0.780610000000     0.790950000000     0.0611601  
C570     C      0.051910000000     0.775210000000     0.825770000000    -0.030869   
C571     C      0.978900000000     0.761690000000     0.740900000000     0.0618023  
C572     C      0.933960000000     0.746590000000     0.731470000000    -0.0642076  
C573     C      0.992220000000     0.748630000000     0.747440000000    -0.053098   
C574     C      0.915320000000     0.745340000000     0.702590000000     0.120811   
C575     C      0.937060000000     0.729500000000     0.659260000000    -0.00346957 
C576     C      0.005730000000     0.792730000000     0.785790000000    -0.0514552  
H1       H      0.803420000000     0.041420000000     0.739720000000     0.0458117  
H2       H      0.724670000000     0.949840000000     0.730800000000     0.0375496  
H3       H      0.796100000000     0.953930000000     0.732990000000     0.0566023  
H4       H      0.800940000000     0.081560000000     0.620030000000     0.039559   
H5       H      0.719840000000     0.922540000000     0.779380000000     0.0400734  
H6       H      0.845250000000     0.054300000000     0.671340000000     0.0383396  
H7       H      0.775240000000     0.053630000000     0.667870000000     0.0392937  
H8       H      0.868740000000     0.100860000000     0.659400000000     0.0446788  
H9       H      0.782940000000     0.999670000000     0.768490000000     0.0483203  
H10      H      0.703550000000     0.902710000000     0.741820000000     0.0442751  
H11      H      0.786470000000     0.006290000000     0.634770000000     0.0474065  
H12      H      0.732120000000     0.932380000000     0.698750000000     0.0401987  
H13      H      0.798120000000     0.100010000000     0.655440000000     0.0532331  
H14      H      0.775650000000     0.923240000000     0.777820000000     0.0304333  
H15      H      0.838990000000     0.072340000000     0.704060000000     0.0432262  
H16      H      0.798330000000     0.072020000000     0.701960000000     0.0486111  
H17      H      0.765850000000     0.964640000000     0.663360000000     0.0434976  
H18      H      0.773230000000     0.936240000000     0.698610000000     0.061549   
H19      H      0.849120000000     0.082230000000     0.622640000000     0.0389153  
H20      H      0.963200000000     0.360310000000     0.505150000000     0.0438744  
H21      H      0.966260000000     0.297660000000     0.597880000000     0.0369847  
H22      H      0.896910000000     0.297900000000     0.597120000000     0.055544   
H23      H      0.025310000000     0.447900000000     0.556050000000     0.040367   
H24      H      0.937410000000     0.254760000000     0.587350000000     0.0404921  
H25      H      0.944750000000     0.398110000000     0.542210000000     0.0378694  
H26      H      0.017950000000     0.405960000000     0.546750000000     0.0379784  
H27      H      0.962360000000     0.438450000000     0.506750000000     0.0438169  
H28      H      0.941670000000     0.315920000000     0.524080000000     0.0475014  
H29      H      0.944350000000     0.256690000000     0.634460000000     0.0420476  
H30      H      0.973420000000     0.383400000000     0.616750000000     0.0472598  
H31      H      0.951340000000     0.298520000000     0.639420000000     0.040966   
H32      H      0.035540000000     0.446520000000     0.511130000000     0.0485713  
H33      H      0.879540000000     0.254550000000     0.593300000000     0.0304753  
H34      H      0.960790000000     0.398450000000     0.501090000000     0.0405707  
H35      H      0.002770000000     0.402850000000     0.503720000000     0.042581   
H36      H      0.952500000000     0.339170000000     0.635710000000     0.0442262  
H37      H      0.913520000000     0.300910000000     0.638520000000     0.0623587  
H38      H      0.972650000000     0.442160000000     0.552820000000     0.0391095  
H39      H      0.093850000000     0.669260000000     0.365180000000     0.0485592  
H40      H      0.160600000000     0.746550000000     0.430770000000     0.0385002  
H41      H      0.089700000000     0.743690000000     0.425290000000     0.0588956  
H42      H      0.088150000000     0.598840000000     0.396370000000     0.0397816  
H43      H      0.165340000000     0.784860000000     0.457540000000     0.0362591  
H44      H      0.040670000000     0.629060000000     0.418910000000     0.03771    
H45      H      0.114680000000     0.638850000000     0.426070000000     0.037331   
H46      H      0.021670000000     0.583230000000     0.433530000000     0.0431875  
H47      H      0.113320000000     0.715150000000     0.369420000000     0.0484712  
H48      H      0.183230000000     0.791910000000     0.416600000000     0.0473921  
H49      H      0.087280000000     0.663550000000     0.481190000000     0.0423421  
H50      H      0.150530000000     0.753120000000     0.388230000000     0.0499102  
H51      H      0.096630000000     0.593220000000     0.440440000000     0.0444466  
H52      H      0.118540000000     0.784440000000     0.450830000000     0.0273967  
H53      H      0.051330000000     0.623430000000     0.461600000000     0.0397445  
H54      H      0.094840000000     0.629110000000     0.465780000000     0.0395533  
H55      H      0.106890000000     0.709580000000     0.485530000000     0.0467722  
H56      H      0.108330000000     0.750190000000     0.384750000000     0.0661555  
H57      H      0.038980000000     0.592230000000     0.391750000000     0.0392656  
H58      H      0.652120000000     0.688810000000     0.814160000000     0.0451927  
H59      H      0.642090000000     0.616190000000     0.901750000000     0.0375364  
H60      H      0.575710000000     0.603440000000     0.845290000000     0.0612664  
H61      H      0.687940000000     0.764330000000     0.895570000000     0.038547   
H62      H      0.622310000000     0.574070000000     0.875650000000     0.0391232  
H63      H      0.615960000000     0.715450000000     0.849160000000     0.0400059  
H64      H      0.687990000000     0.726120000000     0.879220000000     0.0375102  
H65      H      0.635930000000     0.760150000000     0.828660000000     0.0511367  
H66      H      0.634920000000     0.643110000000     0.817180000000     0.0483962  
H67      H      0.619340000000     0.571140000000     0.924240000000     0.0384861  
H68      H      0.624160000000     0.687710000000     0.921560000000     0.0470809  
H69      H      0.614320000000     0.608220000000     0.928560000000     0.0409458  
H70      H      0.708920000000     0.770950000000     0.857940000000     0.0451339  
H71      H      0.585100000000     0.569070000000     0.839440000000     0.0252754  
H72      H      0.639720000000     0.723150000000     0.814750000000     0.046406   
H73      H      0.682030000000     0.729400000000     0.832340000000     0.0422292  
H74      H      0.605910000000     0.641770000000     0.923860000000     0.0443153  
H75      H      0.573280000000     0.599460000000     0.893880000000     0.0644625  
H76      H      0.639540000000     0.756940000000     0.876230000000     0.0400367  
H77      H      0.270890000000     0.021140000000     0.324410000000     0.0440388  
H78      H      0.326490000000     0.073210000000     0.216620000000     0.0376267  
H79      H      0.255390000000     0.069760000000     0.219780000000     0.0548054  
H80      H      0.245830000000     0.929650000000     0.291720000000     0.0419902  
H81      H      0.340510000000     0.116240000000     0.217660000000     0.041503   
H82      H      0.212900000000     0.978500000000     0.302570000000     0.0392945  
H83      H      0.278940000000     0.972600000000     0.290290000000     0.0378352  
H84      H      0.195820000000     0.942360000000     0.347420000000     0.0503912  
H85      H      0.290040000000     0.062600000000     0.294930000000     0.0476471  
H86      H      0.340800000000     0.109950000000     0.170720000000     0.0418767  
H87      H      0.249110000000     0.984990000000     0.220320000000     0.0475435  
H88      H      0.307790000000     0.067420000000     0.176380000000     0.0412723  
H89      H      0.260810000000     0.936200000000     0.335100000000     0.0437791  
H90      H      0.278300000000     0.112700000000     0.212700000000     0.0314511  
H91      H      0.233080000000     0.982890000000     0.340770000000     0.0418961  
H92      H      0.270630000000     0.979610000000     0.333740000000     0.0406497  
H93      H      0.268940000000     0.026340000000     0.190780000000     0.0442787  
H94      H      0.266890000000     0.063030000000     0.179170000000     0.0621221  
H95      H      0.196320000000     0.934150000000     0.301170000000     0.0417601  
H96      H      0.450790000000     0.396340000000     0.129670000000     0.0468825  
H97      H      0.436420000000     0.311250000000     0.125210000000     0.0374981  
H98      H      0.366090000000     0.309490000000     0.125650000000     0.0550296  
H99      H      0.511990000000     0.442280000000     0.057570000000     0.0372973  
H100     H      0.409720000000     0.267790000000     0.122290000000     0.0399636  
H101     H      0.433080000000     0.419240000000     0.053710000000     0.0375881  
H102     H      0.488840000000     0.397000000000     0.056180000000     0.0368686  
H103     H      0.460350000000     0.454470000000     0.010330000000     0.0424598  
H104     H      0.425080000000     0.354310000000     0.156200000000     0.0445117  
H105     H      0.416430000000     0.273330000000     0.169350000000     0.0431112  
H106     H      0.429850000000     0.364330000000     0.022940000000     0.0431696  
H107     H      0.422870000000     0.314610000000     0.166540000000     0.0411449  
H108     H      0.516140000000     0.431980000000     0.014090000000     0.043497   
H109     H      0.349760000000     0.266230000000     0.126100000000     0.0315364  
H110     H      0.441050000000     0.408840000000     0.012740000000     0.0399375  
H111     H      0.473560000000     0.396310000000     0.014060000000     0.0399542  
H112     H      0.404760000000     0.322150000000     0.049450000000     0.047841   
H113     H      0.384320000000     0.315140000000     0.166210000000     0.0622309  
H114     H      0.473130000000     0.458090000000     0.055070000000     0.0391484  
H115     H      0.697390000000     0.870820000000     0.555300000000     0.0473123  
H116     H      0.743270000000     0.833160000000     0.636280000000     0.0432701  
H117     H      0.662720000000     0.794570000000     0.635030000000     0.0610041  
H118     H      0.718340000000     0.892350000000     0.446380000000     0.0406715  
H119     H      0.726950000000     0.798400000000     0.679780000000     0.0421631  
H120     H      0.660850000000     0.822450000000     0.486220000000     0.039255   
H121     H      0.738810000000     0.878170000000     0.489250000000     0.0380868  
H122     H      0.660030000000     0.827420000000     0.419240000000     0.0468724  
H123     H      0.699510000000     0.855560000000     0.615840000000     0.045897   
H124     H      0.743430000000     0.828100000000     0.703150000000     0.05568    
H125     H      0.707620000000     0.812210000000     0.507800000000     0.044579   
H126     H      0.727770000000     0.847700000000     0.659500000000     0.0508665  
H127     H      0.738780000000     0.884020000000     0.422350000000     0.0449246  
H128     H      0.679170000000     0.775360000000     0.677130000000     0.027627   
H129     H      0.683360000000     0.816710000000     0.462390000000     0.0430499  
H130     H      0.729250000000     0.849490000000     0.464330000000     0.0416206  
H131     H      0.708470000000     0.796210000000     0.568280000000     0.0489346  
H132     H      0.678770000000     0.824000000000     0.659550000000     0.0630672  
H133     H      0.666610000000     0.855150000000     0.444130000000     0.0390196  
H134     H      0.705220000000     0.899650000000     0.016580000000     0.0432437  
H135     H      0.661630000000     0.838730000000     0.132140000000     0.0384714  
H136     H      0.741110000000     0.887330000000     0.131120000000     0.0581224  
H137     H      0.669580000000     0.837880000000     0.914660000000     0.0423445  
H138     H      0.669410000000     0.860590000000     0.188020000000     0.0427328  
H139     H      0.743290000000     0.875490000000     0.978540000000     0.0380682  
H140     H      0.666450000000     0.856170000000     0.968140000000     0.0373662  
H141     H      0.748030000000     0.883530000000     0.909760000000     0.041392   
H142     H      0.703460000000     0.900520000000     0.082860000000     0.0497289  
H143     H      0.663940000000     0.829740000000     0.198200000000     0.0478095  
H144     H      0.700640000000     0.827150000000     0.021560000000     0.047563   
H145     H      0.682590000000     0.826810000000     0.143070000000     0.0419776  
H146     H      0.676230000000     0.868220000000     0.899650000000     0.0410555  
H147     H      0.730390000000     0.896600000000     0.188450000000     0.0374206  
H148     H      0.734560000000     0.897580000000     0.961240000000     0.0390392  
H149     H      0.691760000000     0.887110000000     0.956540000000     0.03679    
H150     H      0.700260000000     0.828580000000     0.087560000000     0.0441648  
H151     H      0.727750000000     0.854290000000     0.140610000000     0.0621414  
H152     H      0.732770000000     0.851710000000     0.925290000000     0.0441928  
H153     H      0.803270000000     0.750230000000     0.270440000000     0.042364   
H154     H      0.789900000000     0.825180000000     0.286500000000     0.0409162  
H155     H      0.719690000000     0.756810000000     0.286530000000     0.0606066  
H156     H      0.835520000000     0.759510000000     0.139940000000     0.0402571  
H157     H      0.764930000000     0.824270000000     0.338740000000     0.0389067  
H158     H      0.772330000000     0.709530000000     0.204700000000     0.0376054  
H159     H      0.835330000000     0.783070000000     0.192100000000     0.0380068  
H160     H      0.798460000000     0.690940000000     0.182160000000     0.0429077  
H161     H      0.783150000000     0.768140000000     0.308550000000     0.0476058  
H162     H      0.769440000000     0.848730000000     0.307880000000     0.0520599  
H163     H      0.774270000000     0.767950000000     0.175280000000     0.0482263  
H164     H      0.765470000000     0.822080000000     0.255680000000     0.052383   
H165     H      0.861560000000     0.765040000000     0.168750000000     0.0437232  
H166     H      0.720780000000     0.782030000000     0.338100000000     0.0271105  
H167     H      0.800800000000     0.718710000000     0.230480000000     0.0387703  
H168     H      0.837400000000     0.761400000000     0.223060000000     0.0394209  
H169     H      0.754800000000     0.786500000000     0.213240000000     0.0478195  
H170     H      0.723740000000     0.781240000000     0.255380000000     0.0636448  
H171     H      0.792290000000     0.708560000000     0.148950000000     0.0393101  
H172     H      0.609700000000     0.966170000000     0.396070000000     0.0426524  
H173     H      0.611220000000     0.897300000000     0.320730000000     0.0372718  
H174     H      0.683070000000     0.963470000000     0.321770000000     0.0559136  
H175     H      0.545540000000     0.979160000000     0.324260000000     0.040211   
H176     H      0.637250000000     0.881750000000     0.342380000000     0.0406896  
H177     H      0.624210000000     0.019530000000     0.349540000000     0.0388444  
H178     H      0.557150000000     0.948330000000     0.342380000000     0.0368513  
H179     H      0.599300000000     0.038470000000     0.375100000000     0.0438402  
H180     H      0.633520000000     0.943770000000     0.388800000000     0.0473129  
H181     H      0.632080000000     0.873370000000     0.295690000000     0.043546   
H182     H      0.607250000000     0.972790000000     0.280370000000     0.0477939  
H183     H      0.629110000000     0.909550000000     0.279690000000     0.0413414  
H184     H      0.531710000000     0.966670000000     0.367560000000     0.0436868  
H185     H      0.696800000000     0.935210000000     0.336740000000     0.0301576  
H186     H      0.607150000000     0.004300000000     0.390260000000     0.039739   
H187     H      0.568010000000     0.962790000000     0.386070000000     0.0393816  
H188     H      0.630890000000     0.950300000000     0.273050000000     0.0446184  
H189     H      0.668470000000     0.948070000000     0.280140000000     0.0625215  
H190     H      0.591230000000     0.027750000000     0.329330000000     0.0404494  
H191     H      0.029240000000     0.510780000000     0.685200000000     0.0427186  
H192     H      0.068230000000     0.568820000000     0.803810000000     0.0366731  
H193     H      0.989360000000     0.517780000000     0.799610000000     0.0549365  
H194     H      0.064200000000     0.576710000000     0.588590000000     0.0374077  
H195     H      0.065000000000     0.547750000000     0.857450000000     0.0395846  
H196     H      0.993430000000     0.535830000000     0.640680000000     0.0373823  
H197     H      0.072310000000     0.561280000000     0.644460000000     0.0366481  
H198     H      0.992640000000     0.527570000000     0.574420000000     0.0426493  
H199     H      0.028510000000     0.507340000000     0.751250000000     0.0474046  
H200     H      0.061980000000     0.573700000000     0.872710000000     0.0419363  
H201     H      0.032090000000     0.582370000000     0.694090000000     0.0462143  
H202     H      0.045730000000     0.578170000000     0.817370000000     0.0390428  
H203     H      0.072440000000     0.553070000000     0.578290000000     0.0434385  
H204     H      0.997270000000     0.504110000000     0.854020000000     0.0312112  
H205     H      0.004220000000     0.513950000000     0.630080000000     0.0402474  
H206     H      0.050770000000     0.528970000000     0.632050000000     0.0398299  
H207     H      0.029890000000     0.578230000000     0.760090000000     0.0431488  
H208     H      0.001800000000     0.549830000000     0.813840000000     0.0618707  
H209     H      0.012350000000     0.560230000000     0.586200000000     0.0388763  
H210     H      0.036530000000     0.524610000000     0.187010000000     0.0424883  
H211     H      0.991030000000     0.477100000000     0.297630000000     0.0367947  
H212     H      0.068190000000     0.497560000000     0.307230000000     0.0535856  
H213     H      0.015190000000     0.456490000000     0.087370000000     0.0390956  
H214     H      0.000640000000     0.499880000000     0.351410000000     0.0416254  
H215     H      0.075770000000     0.514660000000     0.144710000000     0.0373013  
H216     H      0.996610000000     0.463010000000     0.141520000000     0.0363406  
H217     H      0.075690000000     0.522990000000     0.078310000000     0.0430614  
H218     H      0.034850000000     0.526070000000     0.253060000000     0.0470311  
H219     H      0.987000000000     0.468130000000     0.366650000000     0.0412947  
H220     H      0.030940000000     0.451690000000     0.193440000000     0.0465965  
H221     H      0.000160000000     0.455140000000     0.314160000000     0.0418232  
H222     H      0.995800000000     0.469930000000     0.075280000000     0.0430082  
H223     H      0.066340000000     0.511640000000     0.363760000000     0.0304808  
H224     H      0.054550000000     0.526030000000     0.132200000000     0.0393374  
H225     H      0.008050000000     0.495630000000     0.130430000000     0.0399919  
H226     H      0.027370000000     0.452310000000     0.259260000000     0.0441616  
H227     H      0.043370000000     0.465920000000     0.315450000000     0.061521   
H228     H      0.067480000000     0.491220000000     0.088900000000     0.0382219  
H229     H      0.978140000000     0.602480000000     0.106080000000     0.0469272  
H230     H      0.904690000000     0.612330000000     0.070630000000     0.0370349  
H231     H      0.972820000000     0.682500000000     0.073040000000     0.0566992  
H232     H      0.977540000000     0.539640000000     0.053390000000     0.038534   
H233     H      0.892670000000     0.643070000000     0.055530000000     0.0376142  
H234     H      0.025060000000     0.619270000000     0.038890000000     0.037097   
H235     H      0.950590000000     0.556350000000     0.036530000000     0.0381711  
H236     H      0.041780000000     0.593220000000     0.010020000000     0.0432766  
H237     H      0.957800000000     0.627680000000     0.117610000000     0.0439836  
H238     H      0.881590000000     0.631410000000     0.100050000000     0.0438749  
H239     H      0.972950000000     0.611360000000     0.991400000000     0.0446922  
H240     H      0.918110000000     0.627170000000     0.113330000000     0.0414206  
H241     H      0.966950000000     0.530130000000     0.007910000000     0.0490318  
H242     H      0.941990000000     0.694920000000     0.061690000000     0.0281101  
H243     H      0.010450000000     0.605600000000     0.996140000000     0.0416444  
H244     H      0.967430000000     0.569140000000     0.994770000000     0.0448675  
H245     H      0.952270000000     0.636420000000     0.002880000000     0.0473819  
H246     H      0.958110000000     0.666680000000     0.114550000000     0.0618349  
H247     H      0.029690000000     0.583610000000     0.054920000000     0.0388609  
H248     H      0.344160000000     0.131010000000     0.969940000000     0.043731   
H249     H      0.310800000000     0.116210000000     0.843120000000     0.0369038  
H250     H      0.389320000000     0.170400000000     0.842820000000     0.0615792  
H251     H      0.323290000000     0.193550000000     0.035900000000     0.0427018  
H252     H      0.332500000000     0.104580000000     0.797880000000     0.0401046  
H253     H      0.385180000000     0.185940000000     0.996890000000     0.0382168  
H254     H      0.306360000000     0.160260000000     0.991370000000     0.0388438  
H255     H      0.384090000000     0.189440000000     0.064250000000     0.0440489  
H256     H      0.346910000000     0.118300000000     0.908050000000     0.0474834  
H257     H      0.310750000000     0.112370000000     0.776410000000     0.0433025  
H258     H      0.345370000000     0.197560000000     0.928970000000     0.0473556  
H259     H      0.320630000000     0.146010000000     0.821080000000     0.0412666  
H260     H      0.304950000000     0.164030000000     0.058940000000     0.0508236  
H261     H      0.379560000000     0.137110000000     0.798720000000     0.0306025  
H262     H      0.363090000000     0.156970000000     0.019240000000     0.0406051  
H263     H      0.317390000000     0.142030000000     0.015730000000     0.0437582  
H264     H      0.346310000000     0.183940000000     0.866990000000     0.0444073  
H265     H      0.368060000000     0.178600000000     0.820230000000     0.0617208  
H266     H      0.377840000000     0.211060000000     0.039900000000     0.0389959  
H267     H      0.298180000000     0.170730000000     0.384310000000     0.0436893  
H268     H      0.312410000000     0.145830000000     0.493350000000     0.036771   
H269     H      0.341850000000     0.223260000000     0.517520000000     0.0617376  
H270     H      0.382050000000     0.219540000000     0.300990000000     0.042964   
H271     H      0.293010000000     0.148850000000     0.549380000000     0.0410961  
H272     H      0.313630000000     0.212030000000     0.341180000000     0.0404445  
H273     H      0.370100000000     0.190910000000     0.351990000000     0.03677    
H274     H      0.314410000000     0.207820000000     0.273640000000     0.0522889  
H275     H      0.291320000000     0.164360000000     0.449110000000     0.0471323  
H276     H      0.313680000000     0.136230000000     0.558020000000     0.0411243  
H277     H      0.377200000000     0.224600000000     0.403180000000     0.0489033  
H278     H      0.343960000000     0.163870000000     0.511770000000     0.0436528  
H279     H      0.372470000000     0.188260000000     0.285180000000     0.0426091  
H280     H      0.312390000000     0.198300000000     0.565000000000     0.0273537  
H281     H      0.307090000000     0.181300000000     0.325880000000     0.0408297  
H282     H      0.339810000000     0.169240000000     0.332280000000     0.0412875  
H283     H      0.370890000000     0.216270000000     0.467680000000     0.0473347  
H284     H      0.361170000000     0.208940000000     0.526350000000     0.0634317  
H285     H      0.343180000000     0.232750000000     0.292410000000     0.0484897  
H286     H      0.454130000000     0.075440000000     0.577280000000     0.0480455  
H287     H      0.372730000000     0.078180000000     0.585960000000     0.0374469  
H288     H      0.439220000000     0.149220000000     0.595230000000     0.0572387  
H289     H      0.460010000000     0.031470000000     0.493640000000     0.0413492  
H290     H      0.355170000000     0.104520000000     0.593520000000     0.0398787  
H291     H      0.493720000000     0.113400000000     0.503610000000     0.0387219  
H292     H      0.427300000000     0.041880000000     0.497310000000     0.037958   
H293     H      0.513470000000     0.099700000000     0.454020000000     0.0443103  
H294     H      0.430460000000     0.091040000000     0.611900000000     0.0451144  
H295     H      0.353190000000     0.091100000000     0.637040000000     0.0436193  
H296     H      0.435680000000     0.100070000000     0.478490000000     0.04449    
H297     H      0.390190000000     0.087820000000     0.627710000000     0.0420015  
H298     H      0.448390000000     0.029330000000     0.448610000000     0.048966   
H299     H      0.410000000000     0.162470000000     0.606280000000     0.0336465  
H300     H      0.476010000000     0.102850000000     0.462100000000     0.0413072  
H301     H      0.438510000000     0.062320000000     0.458480000000     0.0429192  
H302     H      0.412120000000     0.116000000000     0.513200000000     0.048025   
H303     H      0.428580000000     0.127030000000     0.631800000000     0.0636299  
H304     H      0.510780000000     0.086140000000     0.497740000000     0.0406539  
H305     H      0.082120000000     0.431950000000     0.831440000000     0.0471332  
H306     H      0.083080000000     0.351720000000     0.861050000000     0.0373444  
H307     H      0.155480000000     0.416460000000     0.850510000000     0.056415   
H308     H      0.033310000000     0.450370000000     0.890130000000     0.0409141  
H309     H      0.107370000000     0.333260000000     0.874720000000     0.0437832  
H310     H      0.113260000000     0.478360000000     0.902450000000     0.0378489  
H311     H      0.039120000000     0.414910000000     0.901990000000     0.0368874  
H312     H      0.097250000000     0.503330000000     0.936000000000     0.0429726  
H313     H      0.100320000000     0.405400000000     0.815310000000     0.0443929  
H314     H      0.101930000000     0.327190000000     0.827540000000     0.0418327  
H315     H      0.094090000000     0.423680000000     0.944260000000     0.042997   
H316     H      0.097290000000     0.362890000000     0.817430000000     0.0412081  
H317     H      0.022930000000     0.439900000000     0.935440000000     0.042903   
H318     H      0.171440000000     0.389880000000     0.856610000000     0.0400522  
H319     H      0.097730000000     0.464460000000     0.944630000000     0.0392794  
H320     H      0.054980000000     0.427800000000     0.944320000000     0.0389755  
H321     H      0.112960000000     0.397680000000     0.928090000000     0.0498846  
H322     H      0.136540000000     0.400770000000     0.811750000000     0.0617198  
H323     H      0.085760000000     0.495220000000     0.890600000000     0.0392545  
H324     H      0.242960000000     0.226180000000     0.728700000000     0.0487316  
H325     H      0.261650000000     0.281290000000     0.840620000000     0.0384514  
H326     H      0.191820000000     0.212680000000     0.848320000000     0.0606968  
H327     H      0.307000000000     0.220710000000     0.691860000000     0.0486635  
H328     H      0.238770000000     0.281100000000     0.895030000000     0.0394163  
H329     H      0.239570000000     0.167520000000     0.745820000000     0.0380197  
H330     H      0.305540000000     0.239780000000     0.748180000000     0.0395706  
H331     H      0.264860000000     0.149120000000     0.719350000000     0.04288    
H332     H      0.224360000000     0.243730000000     0.770220000000     0.0444427  
H333     H      0.242050000000     0.305260000000     0.864600000000     0.0463005  
H334     H      0.271560000000     0.203580000000     0.819380000000     0.0426765  
H335     H      0.235890000000     0.277680000000     0.812200000000     0.0433737  
H336     H      0.331070000000     0.222130000000     0.721390000000     0.0518408  
H337     H      0.196700000000     0.240080000000     0.899430000000     0.028675   
H338     H      0.266220000000     0.172500000000     0.773230000000     0.0388079  
H339     H      0.304690000000     0.214530000000     0.774410000000     0.0399695  
H340     H      0.253150000000     0.221380000000     0.860990000000     0.0480365  
H341     H      0.193560000000     0.235950000000     0.816670000000     0.0602739  
H342     H      0.261990000000     0.171060000000     0.690290000000     0.0425367  
H343     H      0.548190000000     0.517480000000     0.736960000000     0.0522687  
H344     H      0.492250000000     0.510090000000     0.631780000000     0.0390359  
H345     H      0.518180000000     0.457650000000     0.627420000000     0.0601006  
H346     H      0.518330000000     0.518770000000     0.846880000000     0.122937   
H347     H      0.475300000000     0.487520000000     0.576430000000     0.0428734  
H348     H      0.528280000000     0.461040000000     0.784890000000     0.0392804  
H349     H      0.494850000000     0.507200000000     0.791560000000     0.0436176  
H350     H      0.523170000000     0.454240000000     0.852920000000     0.0402212  
H351     H      0.543560000000     0.515590000000     0.671110000000     0.0450698  
H352     H      0.500440000000     0.518460000000     0.565640000000     0.0459614  
H353     H      0.473560000000     0.452420000000     0.747260000000     0.0443484  
H354     H      0.524460000000     0.520340000000     0.618470000000     0.0419933  
H355     H      0.486640000000     0.495530000000     0.859020000000     0.0573276  
H356     H      0.496630000000     0.450490000000     0.571170000000     0.0381455  
H357     H      0.496290000000     0.448390000000     0.801210000000     0.0396304  
H358     H      0.476910000000     0.474300000000     0.803160000000     0.0361643  
H359     H      0.468680000000     0.450730000000     0.681220000000     0.050485   
H360     H      0.539600000000     0.490430000000     0.618130000000     0.0625655  
H361     H      0.546620000000     0.485040000000     0.838260000000     0.0490605  
H362     H      0.519210000000     0.502550000000     0.146800000000     0.0429346  
H363     H      0.537890000000     0.484150000000     0.273000000000     0.0398417  
H364     H      0.524090000000     0.545320000000     0.274780000000     0.0582838  
H365     H      0.603830000000     0.546760000000     0.077390000000     0.0382944  
H366     H      0.504970000000     0.473450000000     0.317210000000     0.0421974  
H367     H      0.549300000000     0.561710000000     0.118040000000     0.0384561  
H368     H      0.583150000000     0.515660000000     0.125430000000     0.0370548  
H369     H      0.552440000000     0.562250000000     0.050630000000     0.0435626  
H370     H      0.503260000000     0.492440000000     0.208970000000     0.0475719  
H371     H      0.533860000000     0.480410000000     0.339640000000     0.0539552  
H372     H      0.592490000000     0.558690000000     0.186800000000     0.0481052  
H373     H      0.559590000000     0.512860000000     0.296140000000     0.047928   
H374     H      0.586940000000     0.515610000000     0.058260000000     0.042797   
H375     H      0.497820000000     0.519990000000     0.322870000000     0.0278956  
H376     H      0.532260000000     0.530540000000     0.098620000000     0.0416388  
H377     H      0.552700000000     0.502660000000     0.103340000000     0.0403185  
H378     H      0.577040000000     0.547600000000     0.248910000000     0.0467374  
H379     H      0.552490000000     0.548540000000     0.294870000000     0.0643832  
H380     H      0.582650000000     0.575130000000     0.072760000000     0.0376275  
H381     H      0.839010000000     0.193600000000     0.924560000000     0.0471003  
H382     H      0.913360000000     0.208110000000     0.812360000000     0.037594   
H383     H      0.833010000000     0.166100000000     0.814090000000     0.0581013  
H384     H      0.818500000000     0.126610000000     0.006630000000     0.0384681  
H385     H      0.901150000000     0.219510000000     0.757060000000     0.0427982  
H386     H      0.868560000000     0.206020000000     0.982520000000     0.0366676  
H387     H      0.844550000000     0.129890000000     0.956370000000     0.0380364  
H388     H      0.863810000000     0.195140000000     0.048480000000     0.0428502  
H389     H      0.848600000000     0.204540000000     0.860580000000     0.0497398  
H390     H      0.912660000000     0.198640000000     0.745690000000     0.0441026  
H391     H      0.887590000000     0.160880000000     0.923890000000     0.0441183  
H392     H      0.896770000000     0.175060000000     0.800550000000     0.040685   
H393     H      0.842070000000     0.119680000000     0.022930000000     0.047794   
H394     H      0.842620000000     0.189280000000     0.758670000000     0.0355232  
H395     H      0.886900000000     0.191780000000     0.996640000000     0.0438771  
H396     H      0.873500000000     0.148580000000     0.981560000000     0.0433178  
H397     H      0.894940000000     0.169270000000     0.860150000000     0.0431289  
H398     H      0.851300000000     0.151350000000     0.802580000000     0.0626142  
H399     H      0.834470000000     0.181080000000     0.023810000000     0.0410151  
H400     H      0.882100000000     0.176100000000     0.404810000000     0.0425232  
H401     H      0.854430000000     0.111600000000     0.285800000000     0.0445746  
H402     H      0.809330000000     0.141380000000     0.322650000000     0.0557554  
H403     H      0.876550000000     0.135110000000     0.524300000000     0.0404632  
H404     H      0.826170000000     0.088330000000     0.239730000000     0.04747    
H405     H      0.826510000000     0.152850000000     0.459690000000     0.0379054  
H406     H      0.890980000000     0.143580000000     0.463500000000     0.0373457  
H407     H      0.837990000000     0.173560000000     0.520880000000     0.0438373  
H408     H      0.871940000000     0.167450000000     0.340430000000     0.0477247  
H409     H      0.798740000000     0.081070000000     0.266250000000     0.0450858  
H410     H      0.822160000000     0.101150000000     0.430930000000     0.0477167  
H411     H      0.828050000000     0.088650000000     0.311540000000     0.0373396  
H412     H      0.902810000000     0.166590000000     0.524370000000     0.0419975  
H413     H      0.818870000000     0.151740000000     0.261340000000     0.0333502  
H414     H      0.857990000000     0.179790000000     0.462580000000     0.0396913  
H415     H      0.894550000000     0.174620000000     0.464020000000     0.0376436  
H416     H      0.811290000000     0.092940000000     0.366690000000     0.045058   
H417     H      0.793400000000     0.107810000000     0.315110000000     0.0620264  
H418     H      0.826940000000     0.140410000000     0.520560000000     0.0421792  
H419     H      0.112140000000     0.282490000000     0.650090000000     0.0436944  
H420     H      0.136730000000     0.314150000000     0.532050000000     0.0372026  
H421     H      0.117980000000     0.237850000000     0.520470000000     0.0607344  
H422     H      0.196140000000     0.305890000000     0.721890000000     0.0410446  
H423     H      0.107950000000     0.295390000000     0.480740000000     0.039154   
H424     H      0.122240000000     0.247240000000     0.695590000000     0.0389843  
H425     H      0.183140000000     0.319740000000     0.668820000000     0.0388034  
H426     H      0.128500000000     0.258710000000     0.761560000000     0.0485987  
H427     H      0.100400000000     0.278370000000     0.586290000000     0.0467978  
H428     H      0.138640000000     0.319840000000     0.466150000000     0.0438861  
H429     H      0.178200000000     0.277050000000     0.622830000000     0.0476714  
H430     H      0.159860000000     0.307510000000     0.512110000000     0.042457   
H431     H      0.190610000000     0.331170000000     0.734100000000     0.050599   
H432     H      0.096950000000     0.248840000000     0.473530000000     0.0272571  
H433     H      0.120060000000     0.274800000000     0.706850000000     0.0408727  
H434     H      0.155460000000     0.316860000000     0.691150000000     0.0452503  
H435     H      0.167630000000     0.275120000000     0.558790000000     0.0450819  
H436     H      0.148710000000     0.262140000000     0.504770000000     0.0609614  
H437     H      0.154290000000     0.256980000000     0.741090000000     0.0419084  
H438     H      0.218540000000     0.366600000000     0.143610000000     0.0428353  
H439     H      0.150010000000     0.317180000000     0.037340000000     0.0372698  
H440     H      0.229150000000     0.354400000000     0.017370000000     0.0518788  
H441     H      0.175130000000     0.285570000000     0.234540000000     0.0437545  
H442     H      0.151730000000     0.300440000000     0.981060000000     0.0464157  
H443     H      0.178810000000     0.353490000000     0.187250000000     0.0364657  
H444     H      0.203520000000     0.299930000000     0.184930000000     0.038207   
H445     H      0.184670000000     0.355640000000     0.256270000000     0.0418007  
H446     H      0.218870000000     0.370720000000     0.078960000000     0.0445671  
H447     H      0.144310000000     0.324530000000     0.970640000000     0.0412794  
H448     H      0.164820000000     0.287090000000     0.135090000000     0.0478075  
H449     H      0.167000000000     0.349360000000     0.022390000000     0.0469155  
H450     H      0.206140000000     0.301970000000     0.254010000000     0.0413108  
H451     H      0.221830000000     0.349000000000     0.957250000000     0.0318483  
H452     H      0.209580000000     0.361000000000     0.204410000000     0.0372156  
H453     H      0.223130000000     0.330880000000     0.203540000000     0.0403601  
H454     H      0.166870000000     0.290630000000     0.069050000000     0.048642   
H455     H      0.212650000000     0.371730000000     0.021280000000     0.0616894  
H456     H      0.157160000000     0.329190000000     0.237840000000     0.0403839  
H457     H      0.037160000000     0.243950000000     0.198690000000     0.0476716  
H458     H      0.947800000000     0.226820000000     0.208360000000     0.0368463  
H459     H      0.952950000000     0.161780000000     0.186580000000     0.0556032  
H460     H      0.088700000000     0.292580000000     0.278180000000     0.0398846  
H461     H      0.904670000000     0.196310000000     0.207240000000     0.0414867  
H462     H      0.051690000000     0.210940000000     0.267180000000     0.0392212  
H463     H      0.043830000000     0.275390000000     0.280400000000     0.03657    
H464     H      0.088270000000     0.229400000000     0.311780000000     0.0484173  
H465     H      0.995270000000     0.222630000000     0.169910000000     0.0443323  
H466     H      0.910660000000     0.210280000000     0.163430000000     0.0422718  
H467     H      0.002560000000     0.213780000000     0.301970000000     0.0434398  
H468     H      0.953690000000     0.219920000000     0.163330000000     0.0409906  
H469     H      0.080630000000     0.293290000000     0.324510000000     0.0425994  
H470     H      0.909250000000     0.142320000000     0.181990000000     0.0307963  
H471     H      0.044460000000     0.218690000000     0.310890000000     0.0411885  
H472     H      0.040030000000     0.255410000000     0.318420000000     0.0393743  
H473     H      0.960560000000     0.192110000000     0.273100000000     0.0474386  
H474     H      0.958900000000     0.184660000000     0.152100000000     0.0623802  
H475     H      0.094550000000     0.244610000000     0.268660000000     0.041811   
H476     H      0.310720000000     0.383160000000     0.363760000000     0.0436615  
H477     H      0.384570000000     0.456970000000     0.432220000000     0.0381874  
H478     H      0.390670000000     0.391170000000     0.430060000000     0.05813    
H479     H      0.234050000000     0.364510000000     0.441100000000     0.0391235  
H480     H      0.425750000000     0.471380000000     0.407820000000     0.0421028  
H481     H      0.278310000000     0.330580000000     0.415940000000     0.0394294  
H482     H      0.274320000000     0.397760000000     0.418730000000     0.037176   
H483     H      0.233310000000     0.306330000000     0.394750000000     0.0464747  
H484     H      0.357240000000     0.408070000000     0.366690000000     0.0486517  
H485     H      0.429720000000     0.481890000000     0.453650000000     0.0457915  
H486     H      0.307190000000     0.380100000000     0.480090000000     0.0481995  
H487     H      0.391420000000     0.445370000000     0.472980000000     0.0419298  
H488     H      0.229240000000     0.374160000000     0.397390000000     0.0431938  
H489     H      0.431990000000     0.420970000000     0.411360000000     0.0310927  
H490     H      0.272740000000     0.342610000000     0.374500000000     0.041026   
H491     H      0.270450000000     0.381940000000     0.376140000000     0.039916   
H492     H      0.353570000000     0.405050000000     0.483090000000     0.0452348  
H493     H      0.392890000000     0.406920000000     0.471960000000     0.0632998  
H494     H      0.236810000000     0.319200000000     0.439290000000     0.0410625  
H495     H      0.568460000000     0.004490000000     0.623810000000     0.0428555  
H496     H      0.562570000000     0.049070000000     0.743460000000     0.0388688  
H497     H      0.516910000000     0.969600000000     0.739960000000     0.0576774  
H498     H      0.550800000000     0.055370000000     0.533460000000     0.0418049  
H499     H      0.570310000000     0.032870000000     0.798710000000     0.0391296  
H500     H      0.508700000000     0.977520000000     0.580060000000     0.0375071  
H501     H      0.570720000000     0.051890000000     0.585700000000     0.0374889  
H502     H      0.515330000000     0.979150000000     0.510990000000     0.0399948  
H503     H      0.570410000000     0.002260000000     0.690020000000     0.0479535  
H504     H      0.553590000000     0.049250000000     0.808930000000     0.0462962  
H505     H      0.507490000000     0.020820000000     0.633540000000     0.0479193  
H506     H      0.529150000000     0.034780000000     0.753300000000     0.0438037  
H507     H      0.575340000000     0.050290000000     0.516470000000     0.0411053  
H508     H      0.536630000000     0.977660000000     0.798530000000     0.0300619  
H509     H      0.539760000000     0.985000000000     0.564740000000     0.0379882  
H510     H      0.574490000000     0.026600000000     0.567910000000     0.0371332  
H511     H      0.508650000000     0.017580000000     0.699290000000     0.0451454  
H512     H      0.502330000000     0.988400000000     0.749010000000     0.0637117  
H513     H      0.500270000000     0.995310000000     0.529280000000     0.0423194  
H514     H      0.469830000000     0.990840000000     0.144550000000     0.0426987  
H515     H      0.546250000000     0.066420000000     0.249220000000     0.0409774  
H516     H      0.465700000000     0.023780000000     0.246800000000     0.0534605  
H517     H      0.517490000000     0.997460000000     0.039620000000     0.0440327  
H518     H      0.547060000000     0.079320000000     0.307380000000     0.0439619  
H519     H      0.494270000000     0.052640000000     0.079170000000     0.0376119  
H520     H      0.499260000000     0.986910000000     0.097200000000     0.037045   
H521     H      0.484890000000     0.040400000000     0.012910000000     0.0418735  
H522     H      0.474090000000     0.999900000000     0.208680000000     0.0454457  
H523     H      0.522240000000     0.086330000000     0.299610000000     0.0427642  
H524     H      0.533430000000     0.064730000000     0.123200000000     0.0499055  
H525     H      0.529330000000     0.083240000000     0.240880000000     0.0355791  
H526     H      0.485230000000     0.974690000000     0.030550000000     0.0427514  
H527     H      0.477610000000     0.012870000000     0.301620000000     0.0326525  
H528     H      0.467670000000     0.021730000000     0.071300000000     0.0390572  
H529     H      0.470010000000     0.985000000000     0.082860000000     0.0366899  
H530     H      0.536360000000     0.075010000000     0.186370000000     0.0425249  
H531     H      0.481590000000     0.056840000000     0.256070000000     0.0623274  
H532     H      0.516800000000     0.051690000000     0.027490000000     0.0549041  
H533     H      0.715110000000     0.085810000000     0.011980000000     0.0433504  
H534     H      0.621150000000     0.012660000000     0.979070000000     0.0375583  
H535     H      0.633230000000     0.086450000000     0.992430000000     0.0585588  
H536     H      0.734240000000     0.063020000000     0.134850000000     0.0450093  
H537     H      0.603860000000     0.021740000000     0.926080000000     0.0395248  
H538     H      0.712970000000     0.113770000000     0.093010000000     0.0392453  
H539     H      0.715340000000     0.046430000000     0.076260000000     0.0381229  
H540     H      0.755850000000     0.134080000000     0.121450000000     0.0479883  
H541     H      0.679960000000     0.073470000000     0.969200000000     0.0482384  
H542     H      0.578530000000     0.998480000000     0.952930000000     0.045503   
H543     H      0.661580000000     0.053720000000     0.099510000000     0.0486293  
H544     H      0.600650000000     0.017780000000     0.008780000000     0.0412142  
H545     H      0.758480000000     0.065960000000     0.104270000000     0.0460959  
H546     H      0.610020000000     0.072660000000     0.936840000000     0.0288125  
H547     H      0.736950000000     0.114570000000     0.063450000000     0.0406364  
H548     H      0.738360000000     0.074790000000     0.053540000000     0.0397018  
H549     H      0.626510000000     0.041680000000     0.056990000000     0.0439848  
H550     H      0.608650000000     0.060850000000     0.017890000000     0.0619804  
H551     H      0.732500000000     0.107090000000     0.145880000000     0.048024   
H552     H      0.231080000000     0.895510000000     0.672200000000     0.0421383  
H553     H      0.232210000000     0.866940000000     0.544000000000     0.0367989  
H554     H      0.194910000000     0.909840000000     0.548650000000     0.0608021  
H555     H      0.158530000000     0.821100000000     0.743990000000     0.0400978  
H556     H      0.249480000000     0.899350000000     0.496980000000     0.0395645  
H557     H      0.182480000000     0.895630000000     0.703110000000     0.0375338  
H558     H      0.189780000000     0.830420000000     0.697810000000     0.0359637  
H559     H      0.180900000000     0.892670000000     0.771150000000     0.0425932  
H560     H      0.243420000000     0.907370000000     0.608980000000     0.0467912  
H561     H      0.232660000000     0.868530000000     0.476730000000     0.0424561  
H562     H      0.155700000000     0.840360000000     0.637890000000     0.0471912  
H563     H      0.200650000000     0.853220000000     0.525290000000     0.0417509  
H564     H      0.187340000000     0.827160000000     0.765910000000     0.040544   
H565     H      0.227150000000     0.925360000000     0.501310000000     0.0269529  
H566     H      0.209300000000     0.895620000000     0.723890000000     0.0381131  
H567     H      0.213480000000     0.858220000000     0.720730000000     0.0385513  
H568     H      0.168500000000     0.851090000000     0.574600000000     0.0454729  
H569     H      0.178310000000     0.879250000000     0.527280000000     0.0631689  
H570     H      0.153750000000     0.868370000000     0.748300000000     0.0387515  
H571     H      0.180460000000     0.863840000000     0.090050000000     0.0425976  
H572     H      0.125850000000     0.846970000000     0.215200000000     0.0393966  
H573     H      0.177440000000     0.820290000000     0.202370000000     0.0545337  
H574     H      0.112390000000     0.836520000000     0.997590000000     0.0394667  
H575     H      0.149530000000     0.865140000000     0.266920000000     0.0415069  
H576     H      0.147110000000     0.799810000000     0.050100000000     0.0370595  
H577     H      0.133010000000     0.861060000000     0.050940000000     0.0379294  
H578     H      0.152660000000     0.803340000000     0.983150000000     0.0422925  
H579     H      0.186550000000     0.867430000000     0.155630000000     0.0474369  
H580     H      0.124760000000     0.836010000000     0.283950000000     0.05131    
H581     H      0.106490000000     0.798430000000     0.104600000000     0.0488409  
H582     H      0.117540000000     0.815470000000     0.228250000000     0.0428636  
H583     H      0.139230000000     0.865750000000     0.983800000000     0.0436781  
H584     H      0.194180000000     0.842660000000     0.255510000000     0.0307695  
H585     H      0.171830000000     0.830550000000     0.035880000000     0.0401233  
H586     H      0.163600000000     0.866440000000     0.036160000000     0.0392297  
H587     H      0.113350000000     0.800930000000     0.170030000000     0.045719   
H588     H      0.146170000000     0.800600000000     0.220240000000     0.0635248  
H589     H      0.121260000000     0.795220000000     0.997560000000     0.0397504  
H590     H      0.307850000000     0.922570000000     0.842750000000     0.0423673  
H591     H      0.394190000000     0.993050000000     0.897710000000     0.0377955  
H592     H      0.394750000000     0.929210000000     0.853690000000     0.0594902  
H593     H      0.247760000000     0.900730000000     0.947370000000     0.0375731  
H594     H      0.430060000000     0.008400000000     0.856480000000     0.0414115  
H595     H      0.283620000000     0.866500000000     0.893350000000     0.037278   
H596     H      0.284260000000     0.934580000000     0.917280000000     0.0365656  
H597     H      0.236420000000     0.843800000000     0.887350000000     0.0424382  
H598     H      0.353280000000     0.948060000000     0.829530000000     0.0478984  
H599     H      0.441920000000     0.016360000000     0.902060000000     0.0418554  
H600     H      0.325280000000     0.911680000000     0.951970000000     0.0465025  
H601     H      0.406470000000     0.977320000000     0.925510000000     0.0406623  
H602     H      0.237080000000     0.912780000000     0.911330000000     0.0428617  
H603     H      0.427340000000     0.969290000000     0.828120000000     0.031087   
H604     H      0.272690000000     0.880030000000     0.859380000000     0.0399333  
H605     H      0.272980000000     0.920320000000     0.873560000000     0.0396665  
H606     H      0.370870000000     0.936540000000     0.938240000000     0.0441344  
H607     H      0.407790000000     0.939460000000     0.898530000000     0.0610893  
H608     H      0.247400000000     0.856070000000     0.931920000000     0.0384485  
H609     H      0.868460000000     0.684750000000     0.920510000000     0.0430936  
H610     H      0.813710000000     0.647790000000     0.803320000000     0.0376915  
H611     H      0.861560000000     0.727100000000     0.803880000000     0.0670064  
H612     H      0.807280000000     0.677330000000     0.021350000000     0.0387684  
H613     H      0.839620000000     0.658420000000     0.749380000000     0.0452242  
H614     H      0.865020000000     0.732730000000     0.956550000000     0.0385665  
H615     H      0.810360000000     0.655320000000     0.968740000000     0.0363391  
H616     H      0.875570000000     0.735900000000     0.022300000000     0.0450945  
H617     H      0.869900000000     0.682130000000     0.854450000000     0.0476134  
H618     H      0.807420000000     0.648100000000     0.736650000000     0.0389067  
H619     H      0.803660000000     0.695310000000     0.911700000000     0.0471029  
H620     H      0.801070000000     0.667790000000     0.790480000000     0.04283    
H621     H      0.819990000000     0.657580000000     0.034710000000     0.042314   
H622     H      0.867320000000     0.709570000000     0.754490000000     0.0522328  
H623     H      0.875510000000     0.711190000000     0.970690000000     0.0410243  
H624     H      0.843250000000     0.665530000000     0.977770000000     0.0397836  
H625     H      0.804440000000     0.691670000000     0.845840000000     0.0446191  
H626     H      0.828260000000     0.713480000000     0.795240000000     0.068639   
H627     H      0.843530000000     0.728310000000     0.013410000000     0.0388041  
H628     H      0.935000000000     0.704600000000     0.357540000000     0.0497794  
H629     H      0.897660000000     0.744540000000     0.460370000000     0.0384125  
H630     H      0.875440000000     0.667270000000     0.453880000000     0.0574177  
H631     H      0.902230000000     0.670260000000     0.251360000000     0.0414601  
H632     H      0.903830000000     0.734330000000     0.520470000000     0.0394576  
H633     H      0.928530000000     0.741880000000     0.296100000000     0.0392398  
H634     H      0.877250000000     0.663310000000     0.305660000000     0.0383385  
H635     H      0.922230000000     0.739500000000     0.229280000000     0.0474818  
H636     H      0.929260000000     0.707180000000     0.422920000000     0.0495242  
H637     H      0.875750000000     0.736780000000     0.520810000000     0.0455449  
H638     H      0.867020000000     0.708130000000     0.337180000000     0.0424142  
H639     H      0.864480000000     0.720930000000     0.460550000000     0.0406032  
H640     H      0.869960000000     0.659880000000     0.238960000000     0.0442142  
H641     H      0.886090000000     0.676100000000     0.516030000000     0.0295504  
H642     H      0.895810000000     0.729960000000     0.283550000000     0.0402811  
H643     H      0.865190000000     0.683060000000     0.289060000000     0.0403838  
H644     H      0.860470000000     0.709170000000     0.401840000000     0.0429748  
H645     H      0.852040000000     0.677070000000     0.455190000000     0.0624226  
H646     H      0.935430000000     0.720720000000     0.245350000000     0.0467362  
H647     H      0.719520000000     0.619820000000     0.480960000000     0.0500134  
H648     H      0.628350000000     0.599850000000     0.491090000000     0.0395329  
H649     H      0.638210000000     0.536360000000     0.485080000000     0.0582165  
H650     H      0.774740000000     0.674970000000     0.549470000000     0.0451507  
H651     H      0.586010000000     0.568380000000     0.495470000000     0.0457607  
H652     H      0.736180000000     0.593130000000     0.557180000000     0.0410697  
H653     H      0.730130000000     0.659060000000     0.554220000000     0.0382874  
H654     H      0.774530000000     0.615620000000     0.598220000000     0.0487036  
H655     H      0.676620000000     0.595130000000     0.455990000000     0.0458294  
H656     H      0.589500000000     0.575850000000     0.448530000000     0.0500958  
H657     H      0.689200000000     0.599930000000     0.588810000000     0.044082   
H658     H      0.633340000000     0.588910000000     0.448470000000     0.0436075  
H659     H      0.768810000000     0.681020000000     0.594720000000     0.0451784  
H660     H      0.594680000000     0.513490000000     0.483370000000     0.0428619  
H661     H      0.731040000000     0.605800000000     0.598180000000     0.0394853  
H662     H      0.727650000000     0.643350000000     0.596480000000     0.0399301  
H663     H      0.646260000000     0.574670000000     0.563810000000     0.0507174  
H664     H      0.641160000000     0.554780000000     0.445830000000     0.0631052  
H665     H      0.779230000000     0.625920000000     0.552180000000     0.0565064  
H666     H      0.010080000000     0.809480000000     0.801090000000     0.0456487  
H667     H      0.974180000000     0.738440000000     0.677170000000     0.0366489  
H668     H      0.935950000000     0.760800000000     0.751820000000     0.0569939  
H669     H      0.061220000000     0.785270000000     0.881840000000     0.0381088  
H670     H      0.946610000000     0.745540000000     0.640080000000     0.0381783  
H671     H      0.053460000000     0.828740000000     0.796580000000     0.0355552  
H672     H      0.036680000000     0.756420000000     0.835100000000     0.0357912  
H673     H      0.094540000000     0.848330000000     0.826990000000     0.0416873  
H674     H      0.976870000000     0.794820000000     0.755600000000     0.0480525  
H675     H      0.932550000000     0.712090000000     0.644030000000     0.0405324  
H676     H      0.022750000000     0.747860000000     0.774000000000     0.0410932  
H677     H      0.948520000000     0.715200000000     0.704610000000     0.0409554  
H678     H      0.081210000000     0.775640000000     0.859780000000     0.0421966  
H679     H      0.922250000000     0.764620000000     0.691720000000     0.0343266  
H680     H      0.071800000000     0.814870000000     0.781410000000     0.041756   
H681     H      0.061420000000     0.772570000000     0.801800000000     0.0391366  
H682     H      0.987360000000     0.731160000000     0.733890000000     0.041466   
H683     H      0.926160000000     0.728120000000     0.745630000000     0.0598292  
H684     H      0.068790000000     0.832430000000     0.858550000000     0.0405289  
N1       N      0.738120000000     0.903890000000     0.757300000000    -0.177958   
N2       N      0.761740000000     0.954870000000     0.736220000000    -0.108401   
N3       N      0.808790000000     0.050960000000     0.666870000000    -0.112627   
N4       N      0.834740000000     0.102780000000     0.649880000000    -0.169225   
N5       N      0.907070000000     0.249420000000     0.621180000000    -0.177285   
N6       N      0.931590000000     0.297820000000     0.591130000000    -0.108176   
N7       N      0.980970000000     0.401380000000     0.549910000000    -0.112613   
N8       N      0.001330000000     0.448480000000     0.515130000000    -0.170108   
N9       N      0.149320000000     0.795190000000     0.414730000000    -0.177586   
N10      N      0.123950000000     0.742900000000     0.431750000000    -0.109436   
N11      N      0.078690000000     0.636190000000     0.418910000000    -0.112912   
N12      N      0.057720000000     0.584320000000     0.433510000000    -0.17163    
N13      N      0.585350000000     0.562320000000     0.895020000000    -0.184402   
N14      N      0.610360000000     0.612430000000     0.871800000000    -0.10898    
N15      N      0.650550000000     0.718760000000     0.868070000000    -0.112768   
N16      N      0.673470000000     0.769700000000     0.846520000000    -0.170331   
N17      N      0.311610000000     0.117450000000     0.187200000000    -0.176973   
N18      N      0.291410000000     0.072350000000     0.224670000000    -0.107681   
N19      N      0.245360000000     0.975220000000     0.290590000000    -0.112258   
N20      N      0.223550000000     0.931750000000     0.333930000000    -0.169321   
N21      N      0.378750000000     0.263390000000     0.153860000000    -0.177367   
N22      N      0.400840000000     0.309680000000     0.118890000000    -0.108017   
N23      N      0.460620000000     0.407790000000     0.060180000000    -0.112936   
N24      N      0.492430000000     0.448990000000     0.015710000000    -0.171885   
N25      N      0.702460000000     0.808210000000     0.707090000000    -0.180068   
N26      N      0.703010000000     0.813580000000     0.631400000000    -0.109366   
N27      N      0.699390000000     0.851380000000     0.492020000000    -0.112698   
N28      N      0.698590000000     0.858440000000     0.416750000000    -0.170822   
N29      N      0.702330000000     0.859950000000     0.204740000000    -0.176049   
N30      N      0.700900000000     0.866040000000     0.129240000000    -0.107979   
N31      N      0.703490000000     0.861450000000     0.975350000000    -0.111573   
N32      N      0.708040000000     0.862400000000     0.900800000000    -0.17031    
N33      N      0.731490000000     0.815990000000     0.309990000000    -0.177923   
N34      N      0.756300000000     0.789320000000     0.287270000000    -0.10953    
N35      N      0.801660000000     0.747410000000     0.196400000000    -0.112645   
N36      N      0.830290000000     0.726880000000     0.167150000000    -0.171474   
N37      N      0.669650000000     0.902320000000     0.309440000000    -0.177113   
N38      N      0.646790000000     0.930880000000     0.327450000000    -0.108386   
N39      N      0.591740000000     0.983380000000     0.341490000000    -0.112762   
N40      N      0.563050000000     0.004870000000     0.367180000000    -0.171333   
N41      N      0.027950000000     0.538000000000     0.874410000000    -0.177175   
N42      N      0.029580000000     0.539930000000     0.799490000000    -0.108046   
N43      N      0.033250000000     0.550740000000     0.645980000000    -0.113123   
N44      N      0.033050000000     0.542390000000     0.570920000000    -0.171777   
N45      N      0.026890000000     0.490750000000     0.374760000000    -0.176462   
N46      N      0.030910000000     0.491540000000     0.300220000000    -0.107554   
N47      N      0.036560000000     0.486900000000     0.146470000000    -0.112976   
N48      N      0.036300000000     0.494670000000     0.071260000000    -0.171643   
N49      N      0.912690000000     0.669670000000     0.096640000000    -0.178372   
N50      N      0.939440000000     0.647040000000     0.066510000000    -0.109315   
N51      N      0.987310000000     0.588510000000     0.042660000000    -0.112739   
N52      N      0.006300000000     0.558440000000     0.014350000000    -0.169966   
N53      N      0.350740000000     0.139890000000     0.771020000000    -0.179595   
N54      N      0.350240000000     0.142780000000     0.847170000000    -0.109679   
N55      N      0.346310000000     0.175250000000     0.990070000000    -0.112602   
N56      N      0.345390000000     0.181800000000     0.065320000000    -0.170242   
N57      N      0.327190000000     0.174330000000     0.575970000000    -0.180308   
N58      N      0.325050000000     0.184790000000     0.501930000000    -0.108642   
N59      N      0.343540000000     0.204050000000     0.350350000000    -0.111616   
N60      N      0.346470000000     0.201760000000     0.274570000000    -0.169943   
N61      N      0.380510000000     0.130280000000     0.632120000000    -0.176176   
N62      N      0.405670000000     0.114560000000     0.584470000000    -0.10813    
N63      N      0.460790000000     0.077060000000     0.506380000000    -0.11214    
N64      N      0.485480000000     0.060620000000     0.458960000000    -0.169098   
N65      N      0.139690000000     0.354820000000     0.841850000000    -0.175355   
N66      N      0.119680000000     0.384550000000     0.862370000000    -0.106573   
N67      N      0.076550000000     0.446070000000     0.897020000000    -0.112693   
N68      N      0.057880000000     0.475050000000     0.930250000000    -0.171276   
N69      N      0.204370000000     0.272340000000     0.868760000000    -0.179861   
N70      N      0.228170000000     0.245360000000     0.844070000000    -0.109849   
N71      N      0.270640000000     0.205090000000     0.745370000000    -0.112474   
N72      N      0.298660000000     0.185180000000     0.712420000000    -0.169904   
N73      N      0.508190000000     0.488180000000     0.556480000000    -0.176435   
N74      N      0.502050000000     0.481260000000     0.632420000000    -0.10811    
N75      N      0.514910000000     0.487230000000     0.785630000000    -0.110183   
N76      N      0.513870000000     0.483160000000     0.861260000000    -0.163204   
N77      N      0.521780000000     0.507860000000     0.346110000000    -0.175738   
N78      N      0.528390000000     0.513130000000     0.269840000000    -0.108953   
N79      N      0.566850000000     0.539400000000     0.126010000000    -0.113122   
N80      N      0.570140000000     0.539130000000     0.050140000000    -0.172343   
N81      N      0.872350000000     0.183460000000     0.740520000000    -0.17857    
N82      N      0.873120000000     0.190270000000     0.816060000000    -0.107867   
N83      N      0.853760000000     0.167860000000     0.965870000000    -0.111832   
N84      N      0.846270000000     0.155290000000     0.039500000000    -0.170498   
N85      N      0.815730000000     0.117320000000     0.242970000000    -0.177713   
N86      N      0.833700000000     0.126400000000     0.311380000000    -0.107471   
N87      N      0.856290000000     0.144060000000     0.460850000000    -0.112261   
N88      N      0.866170000000     0.163040000000     0.531430000000    -0.171538   
N89      N      0.129340000000     0.281440000000     0.454180000000    -0.180271   
N90      N      0.125760000000     0.275260000000     0.530210000000    -0.109607   
N91      N      0.153850000000     0.282020000000     0.678710000000    -0.112517   
N92      N      0.162820000000     0.294180000000     0.752680000000    -0.169965   
N93      N      0.181780000000     0.333130000000     0.956930000000    -0.176225   
N94      N      0.189970000000     0.332200000000     0.029470000000    -0.105436   
N95      N      0.187250000000     0.323720000000     0.183250000000    -0.111627   
N96      N      0.184420000000     0.320550000000     0.258380000000    -0.171092   
N97      N      0.904300000000     0.172690000000     0.165200000000    -0.177248   
N98      N      0.949650000000     0.193100000000     0.203730000000    -0.107997   
N99      N      0.047990000000     0.243720000000     0.268030000000    -0.112465   
N100     N      0.091790000000     0.266080000000     0.311300000000    -0.170234   
N101     N      0.438380000000     0.452520000000     0.442770000000    -0.177068   
N102     N      0.386310000000     0.423360000000     0.425490000000    -0.108461   
N103     N      0.278180000000     0.365120000000     0.421500000000    -0.112769   
N104     N      0.226860000000     0.337830000000     0.399980000000    -0.171277   
N105     N      0.532170000000     0.008700000000     0.813670000000    -0.177422   
N106     N      0.542020000000     0.009120000000     0.738590000000    -0.109322   
N107     N      0.536960000000     0.016120000000     0.585330000000    -0.111786   
N108     N      0.537590000000     0.019330000000     0.510280000000    -0.170785   
N109     N      0.508790000000     0.048730000000     0.315320000000    -0.177215   
N110     N      0.506520000000     0.042980000000     0.242630000000    -0.105412   
N111     N      0.501210000000     0.022350000000     0.090210000000    -0.110632   
N112     N      0.496310000000     0.012630000000     0.016010000000    -0.168692   
N113     N      0.582420000000     0.035590000000     0.952350000000    -0.178863   
N114     N      0.630610000000     0.050970000000     0.983990000000    -0.109285   
N115     N      0.710890000000     0.078330000000     0.085320000000    -0.11254    
N116     N      0.759080000000     0.100520000000     0.118320000000    -0.169613   
N117     N      0.214080000000     0.890810000000     0.474180000000    -0.180693   
N118     N      0.214460000000     0.889140000000     0.550480000000    -0.109601   
N119     N      0.183300000000     0.861490000000     0.696640000000    -0.112549   
N120     N      0.177020000000     0.855740000000     0.772150000000    -0.171487   
N121     N      0.161090000000     0.838770000000     0.280620000000    -0.175615   
N122     N      0.154900000000     0.837810000000     0.206360000000    -0.107852   
N123     N      0.137660000000     0.828850000000     0.054010000000    -0.112611   
N124     N      0.142870000000     0.832560000000     0.978170000000    -0.17165    
N125     N      0.444990000000     0.986200000000     0.877100000000    -0.180295   
N126     N      0.391780000000     0.960150000000     0.874130000000    -0.109868   
N127     N      0.286630000000     0.901490000000     0.908050000000    -0.113053   
N128     N      0.233190000000     0.876090000000     0.902710000000    -0.172136   
N129     N      0.833350000000     0.687490000000     0.730040000000    -0.181116   
N130     N      0.840140000000     0.687070000000     0.806420000000    -0.108142   
N131     N      0.835760000000     0.694300000000     0.959370000000    -0.113038   
N132     N      0.846410000000     0.697620000000     0.033900000000    -0.171976   
N133     N      0.870100000000     0.699320000000     0.526480000000    -0.179088   
N134     N      0.890390000000     0.706870000000     0.455980000000    -0.108652   
N135     N      0.904410000000     0.702540000000     0.304670000000    -0.112539   
N136     N      0.897040000000     0.699200000000     0.229280000000    -0.170328   
N137     N      0.585780000000     0.540260000000     0.461860000000    -0.174224   
N138     N      0.632720000000     0.567510000000     0.494620000000    -0.106475   
N139     N      0.733180000000     0.626030000000     0.549890000000    -0.11153    
N140     N      0.778710000000     0.652120000000     0.588830000000    -0.168605   
N141     N      0.913870000000     0.728700000000     0.672570000000    -0.181455   
N142     N      0.958490000000     0.753530000000     0.714480000000    -0.107553   
N143     N      0.041000000000     0.791370000000     0.816590000000    -0.111591   
N144     N      0.089560000000     0.813680000000     0.849490000000    -0.172436   
Ni1      Ni     0.848940000000     0.672320000000     0.629340000000     1.00883    
Ni2      Ni     0.846550000000     0.709900000000     0.625360000000     1.02793    
Ni3      Ni     0.160260000000     0.824780000000     0.873790000000     0.992407   
Ni4      Ni     0.162520000000     0.864640000000     0.877490000000     1.00549    
Ni5      Ni     0.509210000000     0.989560000000     0.918410000000     1.01637    
Ni6      Ni     0.518010000000     0.031740000000     0.910750000000     1.00873    
Ni7      Ni     0.160520000000     0.283190000000     0.354840000000     1.00829    
Ni8      Ni     0.157100000000     0.320110000000     0.359380000000     1.0048     
Ni9      Ni     0.832590000000     0.117880000000     0.135880000000     1.01307    
Ni10     Ni     0.830820000000     0.155250000000     0.146960000000     1.01003    
Ni11     Ni     0.515070000000     0.478690000000     0.448130000000     1.0281     
Ni12     Ni     0.509400000000     0.514220000000     0.453820000000     1.009      
Ni13     Ni     0.192080000000     0.331280000000     0.848060000000     1.01789    
Ni14     Ni     0.151890000000     0.295820000000     0.861640000000     1.00944    
Ni15     Ni     0.357940000000     0.177520000000     0.675830000000     1.03197    
Ni16     Ni     0.321000000000     0.137190000000     0.670730000000     0.995938   
Ni17     Ni     0.053230000000     0.533640000000     0.975480000000     0.99724    
Ni18     Ni     0.010940000000     0.499440000000     0.970500000000     1.00708    
Ni19     Ni     0.721090000000     0.877310000000     0.311490000000     1.01312    
Ni20     Ni     0.679980000000     0.841090000000     0.310070000000     1.01306    
Ni21     Ni     0.888810000000     0.719170000000     0.126750000000     1.00953    
Ni22     Ni     0.854350000000     0.677750000000     0.136710000000     1.00134    
Ni23     Ni     0.542710000000     0.053220000000     0.412850000000     1.00409    
Ni24     Ni     0.505420000000     0.012880000000     0.410580000000     1.00189    
Ni25     Ni     0.324990000000     0.189140000000     0.168210000000     1.01428    
Ni26     Ni     0.365240000000     0.191670000000     0.172220000000     1.00395    
Ni27     Ni     0.525690000000     0.515680000000     0.959430000000     1.01179    
Ni28     Ni     0.553430000000     0.498810000000     0.955940000000     1.00094    
Ni29     Ni     0.169660000000     0.867240000000     0.383070000000     1.02377    
Ni30     Ni     0.205080000000     0.861680000000     0.372110000000     1.00287    
Ni31     Ni     0.008700000000     0.512800000000     0.469710000000     0.996224   
Ni32     Ni     0.050470000000     0.519360000000     0.476570000000     1.00859    
Ni33     Ni     0.851210000000     0.175670000000     0.634430000000     1.03016    
Ni34     Ni     0.890700000000     0.176440000000     0.636520000000     0.993007   
Ni35     Ni     0.685530000000     0.834950000000     0.798270000000     1.00716    
Ni36     Ni     0.726190000000     0.839180000000     0.807530000000     1.01309    
O1       O      0.837620000000     0.669370000000     0.678390000000    -0.449385   
O2       O      0.860120000000     0.677820000000     0.580270000000    -0.433928   
O3       O      0.883250000000     0.692900000000     0.645740000000    -0.447161   
O4       O      0.814600000000     0.654320000000     0.612670000000    -0.442432   
O5       O      0.812580000000     0.689490000000     0.607820000000    -0.448989   
O6       O      0.880160000000     0.727660000000     0.644150000000    -0.43657    
O7       O      0.859070000000     0.713520000000     0.576900000000    -0.452215   
O8       O      0.835080000000     0.704240000000     0.674080000000    -0.42465    
O9       O      0.168400000000     0.831580000000     0.823400000000    -0.447631   
O10      O      0.152430000000     0.820690000000     0.924330000000    -0.448877   
O11      O      0.124780000000     0.810530000000     0.862920000000    -0.447408   
O12      O      0.195710000000     0.841620000000     0.885210000000    -0.449196   
O13      O      0.197380000000     0.878540000000     0.891150000000    -0.451353   
O14      O      0.127680000000     0.848210000000     0.863480000000    -0.452874   
O15      O      0.152660000000     0.857080000000     0.927180000000    -0.449873   
O16      O      0.171750000000     0.869360000000     0.827490000000    -0.451068   
O17      O      0.499550000000     0.991410000000     0.967080000000    -0.449287   
O18      O      0.519550000000     0.990400000000     0.869520000000    -0.42909    
O19      O      0.543540000000     0.003120000000     0.934570000000    -0.450056   
O20      O      0.475540000000     0.978900000000     0.901290000000    -0.426019   
O21      O      0.483740000000     0.018350000000     0.894600000000    -0.449069   
O22      O      0.551590000000     0.042430000000     0.927770000000    -0.429865   
O23      O      0.528320000000     0.029960000000     0.862220000000    -0.445281   
O24      O      0.507170000000     0.030650000000     0.959690000000    -0.44067    
O25      O      0.145410000000     0.274060000000     0.401970000000    -0.424656   
O26      O      0.175250000000     0.294780000000     0.307910000000    -0.447303   
O27      O      0.193410000000     0.301940000000     0.376440000000    -0.447529   
O28      O      0.127460000000     0.266850000000     0.333360000000    -0.444188   
O29      O      0.123740000000     0.301010000000     0.339220000000    -0.449354   
O30      O      0.190770000000     0.336820000000     0.379080000000    -0.45004    
O31      O      0.170560000000     0.328500000000     0.311600000000    -0.453016   
O32      O      0.143600000000     0.309190000000     0.406740000000    -0.454092   
O33      O      0.839290000000     0.128070000000     0.086340000000    -0.445589   
O34      O      0.825620000000     0.110080000000     0.186100000000    -0.449864   
O35      O      0.796940000000     0.101320000000     0.125960000000    -0.448412   
O36      O      0.868140000000     0.136930000000     0.146630000000    -0.432108   
O37      O      0.866110000000     0.171410000000     0.158920000000    -0.45183    
O38      O      0.795610000000     0.136600000000     0.134260000000    -0.44609    
O39      O      0.822210000000     0.144110000000     0.195840000000    -0.442832   
O40      O      0.839590000000     0.163940000000     0.097320000000    -0.451123   
O41      O      0.518570000000     0.484910000000     0.397120000000    -0.443803   
O42      O      0.511720000000     0.475120000000     0.499560000000    -0.422582   
O43      O      0.478930000000     0.458480000000     0.443050000000    -0.428951   
O44      O      0.550700000000     0.501160000000     0.453780000000    -0.426606   
O45      O      0.545500000000     0.534510000000     0.458310000000    -0.443214   
O46      O      0.473700000000     0.491670000000     0.449100000000    -0.449553   
O47      O      0.506820000000     0.508540000000     0.505010000000    -0.448618   
O48      O      0.512530000000     0.517590000000     0.402290000000    -0.426135   
O49      O      0.196100000000     0.338810000000     0.898520000000    -0.436048   
O50      O      0.185530000000     0.321440000000     0.798380000000    -0.445577   
O51      O      0.175090000000     0.350380000000     0.842540000000    -0.428754   
O52      O      0.206320000000     0.309830000000     0.854740000000    -0.451628   
O53      O      0.169110000000     0.277190000000     0.869460000000    -0.426323   
O54      O      0.137310000000     0.316760000000     0.852830000000    -0.449509   
O55      O      0.148830000000     0.287200000000     0.811410000000    -0.443928   
O56      O      0.157650000000     0.306850000000     0.911000000000    -0.446701   
O57      O      0.350420000000     0.184880000000     0.628580000000    -0.426398   
O58      O      0.362840000000     0.167430000000     0.722900000000    -0.422967   
O59      O      0.376600000000     0.163110000000     0.654930000000    -0.426514   
O60      O      0.336950000000     0.189400000000     0.696140000000    -0.444243   
O61      O      0.302130000000     0.152030000000     0.689950000000    -0.447789   
O62      O      0.342330000000     0.125090000000     0.651860000000    -0.447985   
O63      O      0.327510000000     0.130430000000     0.718820000000    -0.451377   
O64      O      0.316940000000     0.146580000000     0.622910000000    -0.451739   
O65      O      0.049630000000     0.543260000000     0.927510000000    -0.449204   
O66      O      0.054120000000     0.521580000000     0.023080000000    -0.448512   
O67      O      0.064410000000     0.512030000000     0.955490000000    -0.450627   
O68      O      0.039250000000     0.553160000000     0.994930000000    -0.447828   
O69      O      0.999780000000     0.521140000000     0.990240000000    -0.444026   
O70      O      0.024960000000     0.479920000000     0.951080000000    -0.448141   
O71      O      0.014480000000     0.489880000000     0.018510000000    -0.450179   
O72      O      0.010060000000     0.511370000000     0.922890000000    -0.433549   
O73      O      0.720600000000     0.876630000000     0.259730000000    -0.424519   
O74      O      0.719040000000     0.875490000000     0.363200000000    -0.448335   
O75      O      0.734610000000     0.854980000000     0.311470000000    -0.444092   
O76      O      0.704760000000     0.897280000000     0.311240000000    -0.429283   
O77      O      0.666380000000     0.863300000000     0.309540000000    -0.451783   
O78      O      0.696350000000     0.821200000000     0.310570000000    -0.424561   
O79      O      0.680370000000     0.841900000000     0.361810000000    -0.447307   
O80      O      0.682120000000     0.842790000000     0.258410000000    -0.445233   
O81      O      0.875460000000     0.717320000000     0.079240000000    -0.449956   
O82      O      0.899770000000     0.718410000000     0.174970000000    -0.443523   
O83      O      0.907760000000     0.703850000000     0.109530000000    -0.427964   
O84      O      0.867640000000     0.731660000000     0.144760000000    -0.449771   
O85      O      0.835450000000     0.692980000000     0.154280000000    -0.449783   
O86      O      0.875380000000     0.665270000000     0.118470000000    -0.452163   
O87      O      0.867880000000     0.679490000000     0.184070000000    -0.449793   
O88      O      0.843270000000     0.678610000000     0.088570000000    -0.451342   
O89      O      0.548670000000     0.044700000000     0.460180000000    -0.45096    
O90      O      0.534300000000     0.059180000000     0.365410000000    -0.450607   
O91      O      0.522290000000     0.065740000000     0.433800000000    -0.447273   
O92      O      0.560680000000     0.038000000000     0.392000000000    -0.449668   
O93      O      0.525690000000     0.000490000000     0.388870000000    -0.449445   
O94      O      0.487630000000     0.027860000000     0.432500000000    -0.444211   
O95      O      0.498880000000     0.021930000000     0.363740000000    -0.437165   
O96      O      0.514290000000     0.006640000000     0.457780000000    -0.447706   
O97      O      0.327250000000     0.195510000000     0.219170000000    -0.441627   
O98      O      0.325540000000     0.183140000000     0.117370000000    -0.441282   
O99      O      0.310010000000     0.153730000000     0.177330000000    -0.433265   
O100     O      0.342630000000     0.224730000000     0.159580000000    -0.433555   
O101     O      0.380240000000     0.227300000000     0.165460000000    -0.450965   
O102     O      0.347570000000     0.155840000000     0.178620000000    -0.450585   
O103     O      0.364030000000     0.187500000000     0.120950000000    -0.451343   
O104     O      0.363880000000     0.195790000000     0.223270000000    -0.450332   
O105     O      0.543090000000     0.532370000000     0.002870000000    -0.452588   
O106     O      0.510510000000     0.498620000000     0.915730000000    -0.446088   
O107     O      0.503050000000     0.486390000000     0.987190000000    -0.448102   
O108     O      0.549810000000     0.543170000000     0.930420000000    -0.435003   
O109     O      0.576880000000     0.528660000000     0.930500000000    -0.450851   
O110     O      0.528460000000     0.470180000000     0.981710000000    -0.45352    
O111     O      0.537380000000     0.484090000000     0.910540000000    -0.444135   
O112     O      0.567510000000     0.514870000000     0.001280000000    -0.449429   
O113     O      0.183970000000     0.880220000000     0.429710000000    -0.427314   
O114     O      0.157880000000     0.854270000000     0.335600000000    -0.443211   
O115     O      0.152510000000     0.833570000000     0.402020000000    -0.426121   
O116     O      0.188920000000     0.900270000000     0.362960000000    -0.444773   
O117     O      0.222250000000     0.895360000000     0.352990000000    -0.446793   
O118     O      0.185570000000     0.828460000000     0.391600000000    -0.445378   
O119     O      0.190930000000     0.848930000000     0.325320000000    -0.433172   
O120     O      0.216720000000     0.874480000000     0.419750000000    -0.450644   
O121     O      0.011640000000     0.525650000000     0.517810000000    -0.448533   
O122     O      0.008480000000     0.500200000000     0.422070000000    -0.447104   
O123     O      0.996350000000     0.479800000000     0.489280000000    -0.449547   
O124     O      0.023810000000     0.546400000000     0.450800000000    -0.449527   
O125     O      0.062800000000     0.552390000000     0.456940000000    -0.44985    
O126     O      0.035320000000     0.485770000000     0.495800000000    -0.442658   
O127     O      0.047540000000     0.506420000000     0.428690000000    -0.433495   
O128     O      0.050840000000     0.532180000000     0.523910000000    -0.450637   
O129     O      0.853490000000     0.179750000000     0.685620000000    -0.430761   
O130     O      0.851250000000     0.171210000000     0.583450000000    -0.454216   
O131     O      0.834880000000     0.139940000000     0.640950000000    -0.443339   
O132     O      0.870150000000     0.211490000000     0.628060000000    -0.432886   
O133     O      0.906980000000     0.212070000000     0.628540000000    -0.449411   
O134     O      0.871750000000     0.140700000000     0.644430000000    -0.446734   
O135     O      0.887520000000     0.170630000000     0.585360000000    -0.448849   
O136     O      0.891140000000     0.182040000000     0.687580000000    -0.447398   
O137     O      0.688460000000     0.848780000000     0.845710000000    -0.448661   
O138     O      0.685110000000     0.820950000000     0.751820000000    -0.427716   
O139     O      0.671090000000     0.802030000000     0.819040000000    -0.443897   
O140     O      0.702680000000     0.868210000000     0.777810000000    -0.448281   
O141     O      0.740560000000     0.871880000000     0.786090000000    -0.432296   
O142     O      0.709050000000     0.806060000000     0.828400000000    -0.448541   
O143     O      0.723080000000     0.824960000000     0.760450000000    -0.444059   
O144     O      0.726720000000     0.853200000000     0.853920000000    -0.449618   


