data_structure

_audit_creation_method RASPA-1.0
_audit_creation_date 2023-5-19
_audit_author_name 'Poobodin Mano'

_cell_length_a    37.7118
_cell_length_b    37.804
_cell_length_c    38.0995
_cell_angle_alpha 89.997
_cell_angle_beta  89.997
_cell_angle_gamma 89.997
_cell_volume      54316.8

_symmetry_cell_setting          triclinic
_symmetry_space_group_name_Hall 'P 1'
_symmetry_space_group_name_H-M  'P 1'
_symmetry_Int_Tables_number     1

_symmetry_equiv_pos_as_xyz 'x,y,z'

loop_
_atom_site_label
_atom_site_type_symbol
_atom_site_fract_x
_atom_site_fract_y
_atom_site_fract_z
_atom_site_charge
C1       C      0.025630000000     0.940870000000     0.506640000000     0.426842   
C2       C      0.989550000000     0.071280000000     0.505890000000     0.427081   
C3       C      0.942830000000     0.988300000000     0.515510000000     0.427481   
C4       C      0.072280000000     0.023750000000     0.496930000000     0.427853   
C5       C      0.003320000000     0.506530000000     0.575250000000     0.428014   
C6       C      0.012710000000     0.504980000000     0.441600000000     0.427866   
C7       C      0.018470000000     0.572900000000     0.507510000000     0.426963   
C8       C      0.997730000000     0.439270000000     0.509250000000     0.427053   
C9       C      0.517790000000     0.001690000000     0.437700000000     0.426547   
C10      C      0.497900000000     0.006410000000     0.570340000000     0.425831   
C11      C      0.440900000000     0.010000000000     0.493280000000     0.426811   
C12      C      0.574200000000     0.998260000000     0.514790000000     0.426826   
C13      C      0.514110000000     0.073020000000     0.013640000000     0.42875    
C14      C      0.501800000000     0.939950000000     0.994460000000     0.428667   
C15      C      0.511400000000     0.996640000000     0.070470000000     0.427489   
C16      C      0.504990000000     0.016320000000     0.937850000000     0.427228   
C17      C      0.000600000000     0.511760000000     0.941910000000     0.428777   
C18      C      0.019740000000     0.516320000000     0.074470000000     0.427571   
C19      C      0.943710000000     0.518400000000     0.017490000000     0.428912   
C20      C      0.077550000000     0.509870000000     0.999560000000     0.428983   
C21      C      0.525690000000     0.440850000000     0.990160000000     0.427549   
C22      C      0.494390000000     0.572110000000     0.986170000000     0.4291     
C23      C      0.445160000000     0.490390000000     0.980430000000     0.429825   
C24      C      0.575580000000     0.522580000000     0.996050000000     0.429416   
C25      C      0.849630000000     0.490300000000     0.024920000000    -0.030894   
C26      C      0.664390000000     0.520210000000     0.035360000000    -0.0310229  
C27      C      0.631560000000     0.545120000000     0.970670000000    -0.00525603 
C28      C      0.625990000000     0.533090000000     0.035910000000    -0.00425925 
C29      C      0.741330000000     0.509150000000     0.993940000000    -0.0556471  
C30      C      0.776270000000     0.552350000000     0.042350000000    -0.0543944  
C31      C      0.722060000000     0.535210000000     0.012330000000     0.0608293  
C32      C      0.670110000000     0.532780000000     0.973100000000    -0.03068    
C33      C      0.795740000000     0.527160000000     0.023470000000     0.0609226  
C34      C      0.852440000000     0.551910000000     0.007400000000    -0.0309693  
C35      C      0.777960000000     0.505930000000     0.998630000000    -0.0556698  
C36      C      0.890360000000     0.555740000000     0.020870000000    -0.00424847 
C37      C      0.888030000000     0.490780000000     0.037950000000    -0.00541878 
C38      C      0.740000000000     0.556630000000     0.036530000000    -0.0543405  
C39      C      0.170560000000     0.530170000000     0.972550000000    -0.0309892  
C40      C      0.353980000000     0.477840000000     0.008790000000    -0.0305288  
C41      C      0.391880000000     0.487010000000     0.942730000000    -0.0044779  
C42      C      0.391070000000     0.462390000000     0.004300000000    -0.00511595 
C43      C      0.274280000000     0.468660000000     0.957290000000    -0.0543071  
C44      C      0.249640000000     0.519980000000     0.004070000000    -0.0542022  
C45      C      0.298650000000     0.488110000000     0.977210000000     0.0611885  
C46      C      0.354750000000     0.502110000000     0.949410000000    -0.0310869  
C47      C      0.225200000000     0.498980000000     0.985820000000     0.060999   
C48      C      0.167630000000     0.469720000000     0.993310000000    -0.0301811  
C49      C      0.237870000000     0.474440000000     0.960920000000    -0.0560074  
C50      C      0.131550000000     0.475450000000     0.010430000000    -0.00535119 
C51      C      0.134750000000     0.539490000000     0.989150000000    -0.00419725 
C52      C      0.286040000000     0.515220000000     0.999330000000    -0.056053   
C53      C      0.499850000000     0.665090000000     0.958320000000    -0.0309448  
C54      C      0.526720000000     0.845220000000     0.983320000000    -0.0306187  
C55      C      0.462740000000     0.888000000000     0.990660000000    -0.00400362 
C56      C      0.527750000000     0.884240000000     0.972690000000    -0.00535965 
C57      C      0.463760000000     0.775750000000     0.959030000000    -0.0544558  
C58      C      0.503580000000     0.736240000000     0.006890000000    -0.0560077  
C59      C      0.487860000000     0.793080000000     0.981080000000     0.0611256  
C60      C      0.465280000000     0.849200000000     0.001530000000    -0.0311689  
C61      C      0.479030000000     0.718990000000     0.984840000000     0.0610895  
C62      C      0.477560000000     0.663130000000     0.018070000000    -0.0308587  
C63      C      0.459150000000     0.739200000000     0.961110000000    -0.054481   
C64      C      0.466760000000     0.624260000000     0.014360000000    -0.00546948 
C65      C      0.488900000000     0.626840000000     0.951490000000    -0.00437355 
C66      C      0.507150000000     0.773040000000     0.005770000000    -0.0559524  
C67      C      0.549040000000     0.350280000000     0.023730000000    -0.0308866  
C68      C      0.555650000000     0.161940000000     0.014950000000    -0.0309133  
C69      C      0.484970000000     0.130970000000     0.019810000000    -0.00425755 
C70      C      0.551300000000     0.124450000000     0.029580000000    -0.00535555 
C71      C      0.505820000000     0.243360000000     0.035780000000    -0.0543752  
C72      C      0.548800000000     0.271210000000     0.982780000000    -0.0555821  
C73      C      0.526510000000     0.220380000000     0.015460000000     0.0608778  
C74      C      0.492460000000     0.167450000000     0.004340000000    -0.0309859  
C75      C      0.527170000000     0.294040000000     0.002730000000     0.0608964  
C76      C      0.534640000000     0.344930000000     0.962500000000    -0.0304581  
C77      C      0.505740000000     0.279610000000     0.029150000000    -0.0540601  
C78      C      0.524550000000     0.384110000000     0.959290000000    -0.00511409 
C79      C      0.536790000000     0.388570000000     0.026090000000    -0.00335177 
C80      C      0.547660000000     0.234640000000     0.988370000000    -0.0556075  
C81      C      0.492520000000     0.977670000000     0.665200000000    -0.0302749  
C82      C      0.528350000000     0.006610000000     0.843940000000    -0.031142   
C83      C      0.471500000000     0.037150000000     0.886040000000    -0.00563158 
C84      C      0.536360000000     0.019110000000     0.881240000000    -0.00444493 
C85      C      0.475400000000     0.000440000000     0.774690000000    -0.0562157  
C86      C      0.522420000000     0.039870000000     0.733680000000    -0.0539315  
C87      C      0.498370000000     0.024900000000     0.791000000000     0.0608827  
C88      C      0.466970000000     0.025010000000     0.847900000000    -0.0308578  
C89      C      0.499410000000     0.015930000000     0.717250000000     0.0603818  
C90      C      0.480200000000     0.040080000000     0.661470000000    -0.0307768  
C91      C      0.475180000000     0.996780000000     0.738110000000    -0.0551382  
C92      C      0.492610000000     0.042600000000     0.623400000000    -0.00408897 
C93      C      0.503770000000     0.975440000000     0.626600000000    -0.00549053 
C94      C      0.521620000000     0.044600000000     0.769990000000    -0.0544372  
C95      C      0.483070000000     0.993360000000     0.164100000000    -0.0304719  
C96      C      0.507720000000     0.971400000000     0.345760000000    -0.030906   
C97      C      0.540340000000     0.030000000000     0.383610000000    -0.00574689 
C98      C      0.519420000000     0.965950000000     0.383750000000    -0.00438933 
C99      C      0.505290000000     0.018550000000     0.272240000000    -0.0558005  
C100     C      0.542500000000     0.966070000000     0.236010000000    -0.0542868  
C101     C      0.528190000000     0.995770000000     0.290850000000     0.0608051  
C102     C      0.528990000000     0.031800000000     0.344990000000    -0.0308099  
C103     C      0.520150000000     0.988900000000     0.217280000000     0.0608186  
C104     C      0.546550000000     0.002740000000     0.161010000000    -0.0313941  
C105     C      0.502140000000     0.015830000000     0.235710000000    -0.0557801  
C106     C      0.548360000000     0.989150000000     0.123260000000    -0.00407828 
C107     C      0.481480000000     0.980600000000     0.125960000000    -0.00572191 
C108     C      0.546790000000     0.969730000000     0.272210000000    -0.0542232  
C109     C      0.970980000000     0.524120000000     0.666150000000    -0.0309801  
C110     C      0.991200000000     0.542750000000     0.849810000000    -0.0304343  
C111     C      0.992490000000     0.476110000000     0.888420000000    -0.00380859 
C112     C      0.980210000000     0.542280000000     0.888420000000    -0.00539105 
C113     C      0.962480000000     0.486820000000     0.776630000000    -0.0544072  
C114     C      0.015370000000     0.524050000000     0.740910000000    -0.0560726  
C115     C      0.986290000000     0.507800000000     0.795700000000     0.0610974  
C116     C      0.003760000000     0.479840000000     0.850050000000    -0.0314762  
C117     C      0.991970000000     0.502100000000     0.721980000000     0.0611278  
C118     C      0.029590000000     0.498320000000     0.669450000000    -0.0306509  
C119     C      0.965500000000     0.483740000000     0.740250000000    -0.0543633  
C120     C      0.028430000000     0.486260000000     0.631220000000    -0.00533568 
C121     C      0.966140000000     0.512670000000     0.627930000000    -0.00411781 
C122     C      0.013270000000     0.525980000000     0.777490000000    -0.0560434  
C123     C      0.051210000000     0.501280000000     0.350830000000    -0.0305137  
C124     C      0.038460000000     0.487650000000     0.166890000000    -0.0308616  
C125     C      0.015080000000     0.550600000000     0.128960000000    -0.0055427  
C126     C      0.026360000000     0.483160000000     0.129050000000    -0.00335153 
C127     C      0.042770000000     0.531810000000     0.241650000000    -0.0558789  
C128     C      0.994840000000     0.485670000000     0.273860000000    -0.0542439  
C129     C      0.017800000000     0.513380000000     0.221050000000     0.0610464  
C130     C      0.025510000000     0.550000000000     0.167890000000    -0.0303596  
C131     C      0.019090000000     0.504370000000     0.294590000000     0.0609929  
C132     C      0.991460000000     0.524300000000     0.348190000000    -0.0305333  
C133     C      0.042710000000     0.528140000000     0.278220000000    -0.0559516  
C134     C      0.982520000000     0.511080000000     0.384930000000    -0.00394764 
C135     C      0.046380000000     0.488320000000     0.388660000000    -0.00558343 
C136     C      0.993950000000     0.490410000000     0.237610000000    -0.0541197  
C137     C      0.161850000000     0.017070000000     0.460400000000    -0.0313009  
C138     C      0.345940000000     0.984460000000     0.484160000000    -0.0306302  
C139     C      0.388910000000     0.048600000000     0.485060000000    -0.0045025  
C140     C      0.385020000000     0.982460000000     0.473460000000    -0.00548956 
C141     C      0.275750000000     0.046350000000     0.456430000000    -0.0542193  
C142     C      0.236540000000     0.008680000000     0.506170000000    -0.0558242  
C143     C      0.293330000000     0.022780000000     0.478900000000     0.0605021  
C144     C      0.349980000000     0.047240000000     0.496270000000    -0.0310202  
C145     C      0.219150000000     0.033200000000     0.484180000000     0.0606305  
C146     C      0.165530000000     0.037260000000     0.520910000000    -0.0307054  
C147     C      0.239210000000     0.051770000000     0.459290000000    -0.0543464  
C148     C      0.127310000000     0.050730000000     0.520100000000    -0.00529431 
C149     C      0.123590000000     0.030340000000     0.457020000000    -0.00461788 
C150     C      0.273330000000     0.004370000000     0.504310000000    -0.055668   
C151     C      0.668690000000     0.024220000000     0.527480000000    -0.0307391  
C152     C      0.852900000000     0.994160000000     0.551600000000    -0.0309577  
C153     C      0.888210000000     0.960640000000     0.492250000000    -0.00540673 
C154     C      0.891370000000     0.981500000000     0.555230000000    -0.00466358 
C155     C      0.778730000000     0.002260000000     0.506040000000    -0.0558524  
C156     C      0.739070000000     0.962150000000     0.553500000000    -0.0541708  
C157     C      0.796010000000     0.977160000000     0.527440000000     0.0608323  
C158     C      0.849840000000     0.973620000000     0.491160000000    -0.0304525  
C159     C      0.721610000000     0.986300000000     0.531550000000     0.0607391  
C160     C      0.665780000000     0.962360000000     0.511170000000    -0.030916   
C161     C      0.741840000000     0.005980000000     0.507280000000    -0.0557592  
C162     C      0.626560000000     0.959810000000     0.521200000000    -0.00455964 
C163     C      0.629340000000     0.025060000000     0.537320000000    -0.00578108 
C164     C      0.775740000000     0.957400000000     0.551240000000    -0.0543339  
C165     C      0.058530000000     0.661690000000     0.523800000000    -0.0309933  
C166     C      0.044500000000     0.850960000000     0.541380000000    -0.0308524  
C167     C      0.034350000000     0.885450000000     0.473650000000    -0.00468936 
C168     C      0.053670000000     0.890280000000     0.537280000000    -0.00575843 
C169     C      0.068220000000     0.774380000000     0.486840000000    -0.0542647  
C170     C      0.018880000000     0.739660000000     0.529340000000    -0.0560574  
C171     C      0.046790000000     0.794320000000     0.509480000000     0.0605783  
C172     C      0.024870000000     0.846850000000     0.480890000000    -0.0310051  
C173     C      0.039260000000     0.719990000000     0.505200000000     0.0607177  
C174     C      0.998430000000     0.669420000000     0.502830000000    -0.030333   
C175     C      0.064290000000     0.737720000000     0.484500000000    -0.0543943  
C176     C      0.996330000000     0.631350000000     0.489580000000    -0.00546377 
C177     C      0.059890000000     0.623240000000     0.511070000000    -0.00457949 
C178     C      0.021840000000     0.776540000000     0.530690000000    -0.0557368  
C179     C      0.017640000000     0.342650000000     0.512540000000    -0.0305964  
C180     C      0.990420000000     0.165140000000     0.532220000000    -0.0307034  
C181     C      0.962120000000     0.122220000000     0.475210000000    -0.00575027 
C182     C      0.980740000000     0.126540000000     0.539090000000    -0.0045092  
C183     C      0.993900000000     0.235980000000     0.483140000000    -0.0555988  
C184     C      0.951690000000     0.274220000000     0.530020000000    -0.0542965  
C185     C      0.968910000000     0.217970000000     0.504110000000     0.0605943  
C186     C      0.971400000000     0.161570000000     0.471540000000    -0.0308658  
C187     C      0.976760000000     0.292190000000     0.509580000000     0.0607296  
C188     C      0.957450000000     0.350860000000     0.491960000000    -0.030868   
C189     C      0.997010000000     0.272830000000     0.485090000000    -0.0556186  
C190     C      0.956200000000     0.389060000000     0.505400000000    -0.00459375 
C191     C      0.019870000000     0.380520000000     0.526370000000    -0.00556352 
C192     C      0.947580000000     0.237630000000     0.527090000000    -0.0542207  
H1       H      0.725630000000     0.576540000000     0.051220000000     0.0435257  
H2       H      0.834480000000     0.470530000000     0.040520000000     0.0340758  
H3       H      0.839360000000     0.578250000000     0.009330000000     0.0338023  
H4       H      0.631150000000     0.574520000000     0.971480000000     0.0358972  
H5       H      0.887810000000     0.493280000000     0.067030000000     0.0365461  
H6       H      0.675940000000     0.524840000000     0.061860000000     0.0337743  
H7       H      0.685990000000     0.547190000000     0.953050000000     0.033985   
H8       H      0.610930000000     0.516740000000     0.055050000000     0.0399624  
H9       H      0.904810000000     0.574160000000     0.003150000000     0.0398198  
H10      H      0.789490000000     0.569200000000     0.061250000000     0.0437092  
H11      H      0.900610000000     0.465000000000     0.031480000000     0.0408216  
H12      H      0.728520000000     0.491550000000     0.975550000000     0.0399528  
H13      H      0.849730000000     0.481840000000     0.996940000000     0.0370259  
H14      H      0.620560000000     0.536880000000     0.944870000000     0.0407974  
H15      H      0.889670000000     0.567860000000     0.047460000000     0.037748   
H16      H      0.665220000000     0.491250000000     0.029970000000     0.038938   
H17      H      0.670900000000     0.504000000000     0.966990000000     0.0373878  
H18      H      0.791970000000     0.486630000000     0.982970000000     0.0399237  
H19      H      0.852650000000     0.543900000000     0.979250000000     0.0387873  
H20      H      0.625480000000     0.560960000000     0.045250000000     0.0373683  
H21      H      0.304090000000     0.531920000000     0.013860000000     0.0404767  
H22      H      0.186990000000     0.554620000000     0.971670000000     0.0335779  
H23      H      0.181940000000     0.448740000000     0.008140000000     0.0341488  
H24      H      0.389190000000     0.461230000000     0.928930000000     0.0370081  
H25      H      0.139550000000     0.554130000000     0.014020000000     0.0386752  
H26      H      0.338840000000     0.460770000000     0.027290000000     0.0346759  
H27      H      0.340270000000     0.502980000000     0.923970000000     0.0338877  
H28      H      0.405110000000     0.463170000000     0.029940000000     0.0408613  
H29      H      0.115280000000     0.451280000000     0.006280000000     0.040962   
H30      H      0.240360000000     0.539720000000     0.022500000000     0.0435988  
H31      H      0.120160000000     0.557490000000     0.971110000000     0.0385279  
H32      H      0.283590000000     0.448510000000     0.939300000000     0.0436319  
H33      H      0.166650000000     0.520790000000     0.945100000000     0.0377713  
H34      H      0.406580000000     0.505450000000     0.925250000000     0.0396427  
H35      H      0.135420000000     0.478420000000     0.039220000000     0.0366957  
H36      H      0.356680000000     0.504640000000     0.020560000000     0.0383705  
H37      H      0.356910000000     0.529620000000     0.959670000000     0.0388036  
H38      H      0.219890000000     0.458780000000     0.945220000000     0.0401455  
H39      H      0.163370000000     0.460320000000     0.965940000000     0.0364504  
H40      H      0.388410000000     0.434140000000     0.996610000000     0.0358065  
H41      H      0.525390000000     0.785490000000     0.023840000000     0.0400076  
H42      H      0.498890000000     0.679570000000     0.932880000000     0.0339586  
H43      H      0.459490000000     0.676140000000     0.037210000000     0.0340471  
H44      H      0.449790000000     0.889620000000     0.964480000000     0.038058   
H45      H      0.462870000000     0.626730000000     0.937780000000     0.037098   
H46      H      0.545870000000     0.830350000000     0.966700000000     0.0340579  
H47      H      0.438420000000     0.837230000000     0.999000000000     0.0339994  
H48      H      0.553990000000     0.895350000000     0.980130000000     0.0407667  
H49      H      0.471800000000     0.610550000000     0.039690000000     0.0407826  
H50      H      0.519980000000     0.721590000000     0.025040000000     0.0400892  
H51      H      0.508800000000     0.614680000000     0.933640000000     0.040365   
H52      H      0.448340000000     0.790770000000     0.940230000000     0.043819   
H53      H      0.527620000000     0.666010000000     0.968260000000     0.0388597  
H54      H      0.445440000000     0.901980000000     0.009820000000     0.0395219  
H55      H      0.437750000000     0.623050000000     0.009290000000     0.0359978  
H56      H      0.535300000000     0.843110000000     0.011190000000     0.0366365  
H57      H      0.473570000000     0.847160000000     0.029520000000     0.038412   
H58      H      0.440490000000     0.726370000000     0.943650000000     0.0437485  
H59      H      0.505050000000     0.664070000000     0.028650000000     0.0370545  
H60      H      0.525580000000     0.885960000000     0.943630000000     0.036373   
H61      H      0.563530000000     0.217870000000     0.971610000000     0.0398719  
H62      H      0.546380000000     0.338250000000     0.050280000000     0.0334869  
H63      H      0.519270000000     0.329650000000     0.942700000000     0.0340307  
H64      H      0.476360000000     0.134160000000     0.047550000000     0.0375934  
H65      H      0.511210000000     0.389420000000     0.040640000000     0.0408744  
H66      H      0.579030000000     0.174480000000     0.027710000000     0.0338682  
H67      H      0.468520000000     0.184170000000     0.008510000000     0.0338293  
H68      H      0.574280000000     0.108190000000     0.020990000000     0.040738   
H69      H      0.538680000000     0.395710000000     0.936390000000     0.0391791  
H70      H      0.566120000000     0.281250000000     0.962490000000     0.0396207  
H71      H      0.556370000000     0.403890000000     0.041800000000     0.0367612  
H72      H      0.489110000000     0.232920000000     0.056450000000     0.0435808  
H73      H      0.577580000000     0.349030000000     0.016220000000     0.0370926  
H74      H      0.462650000000     0.118900000000     0.004960000000     0.0400287  
H75      H      0.495730000000     0.385890000000     0.953270000000     0.0382739  
H76      H      0.560780000000     0.159950000000     0.986250000000     0.0371101  
H77      H      0.497100000000     0.165300000000     0.975530000000     0.0390337  
H78      H      0.489110000000     0.296720000000     0.044940000000     0.0437748  
H79      H      0.563350000000     0.341940000000     0.956320000000     0.0344286  
H80      H      0.552110000000     0.125840000000     0.058720000000     0.0360913  
H81      H      0.539730000000     0.063250000000     0.782000000000     0.0437534  
H82      H      0.506840000000     0.956780000000     0.680140000000     0.0339712  
H83      H      0.484220000000     0.066410000000     0.673970000000     0.0336543  
H84      H      0.473920000000     0.066460000000     0.886340000000     0.0363782  
H85      H      0.532940000000     0.971240000000     0.625480000000     0.0378562  
H86      H      0.553290000000     0.008500000000     0.828410000000     0.0339446  
H87      H      0.445880000000     0.041290000000     0.835390000000     0.0339275  
H88      H      0.555720000000     0.000460000000     0.893180000000     0.0398261  
H89      H      0.474150000000     0.060210000000     0.608770000000     0.0380329  
H90      H      0.540990000000     0.055100000000     0.718120000000     0.0438164  
H91      H      0.491250000000     0.951680000000     0.614640000000     0.0400093  
H92      H      0.457470000000     0.984240000000     0.789900000000     0.0400619  
H93      H      0.463550000000     0.972200000000     0.666980000000     0.0352025  
H94      H      0.447100000000     0.030220000000     0.900900000000     0.0406476  
H95      H      0.519200000000     0.055320000000     0.622830000000     0.039745   
H96      H      0.519900000000     0.978370000000     0.844250000000     0.0387578  
H97      H      0.458200000000     0.996890000000     0.848040000000     0.0367801  
H98      H      0.456520000000     0.978510000000     0.726490000000     0.0395704  
H99      H      0.451330000000     0.033900000000     0.662520000000     0.0374204  
H100     H      0.549130000000     0.045600000000     0.879940000000     0.0378727  
H101     H      0.564240000000     0.951720000000     0.286020000000     0.0436469  
H102     H      0.461410000000     0.980300000000     0.179120000000     0.0339622  
H103     H      0.572530000000     0.997260000000     0.173770000000     0.0339829  
H104     H      0.569600000000     0.026490000000     0.384680000000     0.0366441  
H105     H      0.479750000000     0.951240000000     0.125950000000     0.0363756  
H106     H      0.508560000000     0.945240000000     0.332350000000     0.0338191  
H107     H      0.546460000000     0.050940000000     0.331090000000     0.0340185  
H108     H      0.499660000000     0.948590000000     0.396910000000     0.0399395  
H109     H      0.568730000000     0.004780000000     0.108910000000     0.039573   
H110     H      0.556900000000     0.945470000000     0.222330000000     0.0436374  
H111     H      0.456750000000     0.990820000000     0.113750000000     0.0408353  
H112     H      0.489950000000     0.038610000000     0.285570000000     0.03993    
H113     H      0.478450000000     0.022450000000     0.164380000000     0.0366774  
H114     H      0.534130000000     0.055730000000     0.396340000000     0.0406996  
H115     H      0.557230000000     0.961100000000     0.123610000000     0.037878   
H116     H      0.479850000000     0.981170000000     0.344950000000     0.0386321  
H117     H      0.501250000000     0.041810000000     0.343880000000     0.0365916  
H118     H      0.485190000000     0.034490000000     0.222280000000     0.0399321  
H119     H      0.542300000000     0.031910000000     0.161140000000     0.0386909  
H120     H      0.545320000000     0.951890000000     0.383900000000     0.0379165  
H121     H      0.032640000000     0.541870000000     0.791210000000     0.0398039  
H122     H      0.944290000000     0.525360000000     0.678600000000     0.0339344  
H123     H      0.046940000000     0.479890000000     0.684420000000     0.0339392  
H124     H      0.964880000000     0.465810000000     0.889340000000     0.0378889  
H125     H      0.949230000000     0.488580000000     0.627230000000     0.0387364  
H126     H      0.976400000000     0.564220000000     0.836220000000     0.033922   
H127     H      0.998640000000     0.454170000000     0.836640000000     0.0342258  
H128     H      0.989530000000     0.567150000000     0.900970000000     0.0409026  
H129     H      0.055100000000     0.490390000000     0.619470000000     0.0407491  
H130     H      0.035710000000     0.539230000000     0.727780000000     0.0397627  
H131     H      0.951810000000     0.533970000000     0.613610000000     0.0389323  
H132     H      0.941840000000     0.472330000000     0.790190000000     0.043899   
H133     H      0.982870000000     0.551070000000     0.667260000000     0.0380627  
H134     H      0.009990000000     0.456270000000     0.901260000000     0.0393334  
H135     H      0.023010000000     0.457350000000     0.630590000000     0.0365905  
H136     H      0.020060000000     0.548800000000     0.848470000000     0.0365976  
H137     H      0.032740000000     0.485400000000     0.848460000000     0.0385113  
H138     H      0.947040000000     0.467040000000     0.726120000000     0.044008   
H139     H      0.041530000000     0.525230000000     0.670380000000     0.0362661  
H140     H      0.950760000000     0.542180000000     0.889850000000     0.0362398  
H141     H      0.974870000000     0.475710000000     0.222160000000     0.0442016  
H142     H      0.070940000000     0.483980000000     0.337520000000     0.0339211  
H143     H      0.966440000000     0.525120000000     0.332690000000     0.0339137  
H144     H      0.986080000000     0.555610000000     0.127030000000     0.0380706  
H145     H      0.043270000000     0.459080000000     0.388290000000     0.0370231  
H146     H      0.034810000000     0.461850000000     0.180550000000     0.0337734  
H147     H      0.010710000000     0.571300000000     0.181760000000     0.0339938  
H148     H      0.045320000000     0.465330000000     0.115310000000     0.0376332  
H149     H      0.965370000000     0.531140000000     0.397920000000     0.0394099  
H150     H      0.976170000000     0.467680000000     0.286030000000     0.0440099  
H151     H      0.070970000000     0.494240000000     0.403660000000     0.0404772  
H152     H      0.062030000000     0.549290000000     0.229770000000     0.0397908  
H153     H      0.061940000000     0.528710000000     0.351530000000     0.0359776  
H154     H      0.028500000000     0.573330000000     0.116020000000     0.0395891  
H155     H      0.966900000000     0.486220000000     0.382700000000     0.0385869  
H156     H      0.067210000000     0.494390000000     0.167830000000     0.0373318  
H157     H      0.054370000000     0.555800000000     0.170130000000     0.0348741  
H158     H      0.061300000000     0.543620000000     0.293390000000     0.0399133  
H159     H      0.002310000000     0.551690000000     0.349470000000     0.0379081  
H160     H      0.000080000000     0.469760000000     0.128930000000     0.040182   
H161     H      0.285760000000     0.986390000000     0.522620000000     0.0399064  
H162     H      0.174430000000     0.018410000000     0.434000000000     0.0339425  
H163     H      0.181000000000     0.053770000000     0.539630000000     0.0339808  
H164     H      0.390430000000     0.058660000000     0.457670000000     0.0380269  
H165     H      0.123930000000     0.056920000000     0.444500000000     0.0371093  
H166     H      0.331000000000     0.963760000000     0.469570000000     0.0339998  
H167     H      0.338050000000     0.073680000000     0.491150000000     0.0338436  
H168     H      0.396180000000     0.957010000000     0.483050000000     0.0407942  
H169     H      0.115230000000     0.046830000000     0.546430000000     0.0407689  
H170     H      0.222090000000     0.993200000000     0.525240000000     0.0400982  
H171     H      0.108800000000     0.012060000000     0.439450000000     0.0397712  
H172     H      0.290620000000     0.061020000000     0.436950000000     0.0436016  
H173     H      0.161930000000     0.988920000000     0.469080000000     0.0392548  
H174     H      0.403020000000     0.067770000000     0.502250000000     0.0394986  
H175     H      0.127820000000     0.079670000000     0.514870000000     0.0356442  
H176     H      0.344090000000     0.978670000000     0.512750000000     0.0368841  
H177     H      0.348050000000     0.041880000000     0.524960000000     0.0385559  
H178     H      0.226360000000     0.070450000000     0.441880000000     0.043541   
H179     H      0.165190000000     0.009510000000     0.530650000000     0.0376596  
H180     H      0.386580000000     0.982090000000     0.444320000000     0.0363228  
H181     H      0.788530000000     0.938260000000     0.568190000000     0.0437509  
H182     H      0.683000000000     0.044060000000     0.543760000000     0.0341415  
H183     H      0.677920000000     0.935770000000     0.514860000000     0.0339813  
H184     H      0.888050000000     0.931740000000     0.497670000000     0.035726   
H185     H      0.627060000000     0.023510000000     0.566380000000     0.0367024  
H186     H      0.840190000000     0.992700000000     0.577930000000     0.034084   
H187     H      0.834690000000     0.956820000000     0.472440000000     0.0341047  
H188     H      0.905840000000     0.000160000000     0.572680000000     0.0396082  
H189     H      0.613130000000     0.941790000000     0.502320000000     0.0396187  
H190     H      0.724010000000     0.946520000000     0.572080000000     0.0438483  
H191     H      0.618100000000     0.050970000000     0.529120000000     0.0409291  
H192     H      0.793380000000     0.018650000000     0.487880000000     0.0400835  
H193     H      0.671160000000     0.031930000000     0.499390000000     0.0367332  
H194     H      0.900370000000     0.964520000000     0.465950000000     0.0409485  
H195     H      0.624430000000     0.947780000000     0.547750000000     0.0379705  
H196     H      0.852430000000     0.022270000000     0.542820000000     0.0389093  
H197     H      0.849870000000     0.001320000000     0.481270000000     0.0376406  
H198     H      0.729500000000     0.024430000000     0.489400000000     0.0399329  
H199     H      0.668390000000     0.969640000000     0.482950000000     0.0386026  
H200     H      0.891410000000     0.955040000000     0.567960000000     0.0372385  
H201     H      0.004340000000     0.790870000000     0.548070000000     0.0398989  
H202     H      0.085970000000     0.672540000000     0.523190000000     0.0338722  
H203     H      0.980740000000     0.686150000000     0.486370000000     0.0340358  
H204     H      0.060850000000     0.886460000000     0.460890000000     0.0372553  
H205     H      0.074740000000     0.622240000000     0.485870000000     0.03841    
H206     H      0.062310000000     0.839200000000     0.561520000000     0.0340187  
H207     H      0.027510000000     0.831920000000     0.455830000000     0.0340271  
H208     H      0.046830000000     0.904240000000     0.562050000000     0.0407692  
H209     H      0.969220000000     0.621110000000     0.494900000000     0.040978   
H210     H      0.999870000000     0.726890000000     0.546390000000     0.0400317  
H211     H      0.074890000000     0.607250000000     0.530580000000     0.0389547  
H212     H      0.087270000000     0.787540000000     0.470040000000     0.043754   
H213     H      0.048920000000     0.662700000000     0.551430000000     0.0379665  
H214     H      0.014640000000     0.896340000000     0.454820000000     0.0402646  
H215     H      0.999990000000     0.631450000000     0.460620000000     0.0366306  
H216     H      0.016670000000     0.848990000000     0.550890000000     0.0369145  
H217     H      0.996760000000     0.844870000000     0.489710000000     0.0388895  
H218     H      0.080480000000     0.723040000000     0.466080000000     0.0438531  
H219     H      0.988560000000     0.670120000000     0.530360000000     0.036551   
H220     H      0.082800000000     0.892730000000     0.533510000000     0.0362652  
H221     H      0.928490000000     0.224280000000     0.543690000000     0.0438203  
H222     H      0.035350000000     0.325630000000     0.528700000000     0.0340301  
H223     H      0.930000000000     0.340030000000     0.492480000000     0.0339799  
H224     H      0.932940000000     0.119770000000     0.478550000000     0.0363583  
H225     H      0.016360000000     0.379980000000     0.555350000000     0.0363931  
H226     H      0.987630000000     0.179860000000     0.557400000000     0.0340187  
H227     H      0.953830000000     0.173540000000     0.451320000000     0.0341301  
H228     H      0.000220000000     0.115480000000     0.558060000000     0.0402235  
H229     H      0.941050000000     0.405390000000     0.486280000000     0.0391103  
H230     H      0.935560000000     0.288670000000     0.548670000000     0.0440004  
H231     H      0.046970000000     0.390820000000     0.521080000000     0.0408398  
H232     H      0.011280000000     0.221860000000     0.465480000000     0.0398501  
H233     H      0.027420000000     0.342360000000     0.484970000000     0.0365614  
H234     H      0.969310000000     0.108440000000     0.450430000000     0.0407604  
H235     H      0.941550000000     0.389590000000     0.530730000000     0.0385077  
H236     H      0.018610000000     0.167090000000     0.523660000000     0.0386063  
H237     H      0.999340000000     0.163600000000     0.462350000000     0.0369639  
H238     H      0.016030000000     0.285800000000     0.468200000000     0.0398072  
H239     H      0.966950000000     0.350340000000     0.464270000000     0.038199   
H240     H      0.954110000000     0.125530000000     0.551590000000     0.0372547  
N1       N      0.908000000000     0.520960000000     0.023230000000    -0.172643   
N2       N      0.833690000000     0.525670000000     0.028900000000    -0.113173   
N3       N      0.684170000000     0.539910000000     0.008500000000    -0.113348   
N4       N      0.610400000000     0.531600000000     0.000420000000    -0.172895   
N5       N      0.113640000000     0.507540000000     0.997080000000    -0.172479   
N6       N      0.187930000000     0.502920000000     0.993900000000    -0.113089   
N7       N      0.335850000000     0.479380000000     0.974520000000    -0.113572   
N8       N      0.410370000000     0.481260000000     0.976330000000    -0.173075   
N9       N      0.485390000000     0.607130000000     0.984760000000    -0.172708   
N10      N      0.475270000000     0.680940000000     0.983740000000    -0.113378   
N11      N      0.490650000000     0.831130000000     0.978510000000    -0.113228   
N12      N      0.498180000000     0.904490000000     0.988360000000    -0.172576   
N13      N      0.531680000000     0.405200000000     0.991310000000    -0.171981   
N14      N      0.526710000000     0.332030000000     0.998030000000    -0.112138   
N15      N      0.523430000000     0.182800000000     0.022040000000    -0.113222   
N16      N      0.517080000000     0.108670000000     0.018970000000    -0.172631   
N17      N      0.495140000000     0.007640000000     0.606150000000    -0.171719   
N18      N      0.501050000000     0.012810000000     0.679380000000    -0.112635   
N19      N      0.500630000000     0.029160000000     0.828720000000    -0.113149   
N20      N      0.503640000000     0.021930000000     0.902370000000    -0.172152   
N21      N      0.513380000000     0.991100000000     0.105940000000    -0.172071   
N22      N      0.517750000000     0.984510000000     0.179570000000    -0.113084   
N23      N      0.531840000000     0.996570000000     0.328710000000    -0.113037   
N24      N      0.523570000000     0.000040000000     0.402250000000    -0.172025   
N25      N      0.000400000000     0.504520000000     0.610970000000    -0.172481   
N26      N      0.993550000000     0.498280000000     0.684230000000    -0.113006   
N27      N      0.983210000000     0.508330000000     0.833540000000    -0.113213   
N28      N      0.993660000000     0.510500000000     0.906700000000    -0.172558   
N29      N      0.014770000000     0.503850000000     0.405770000000    -0.172355   
N30      N      0.017070000000     0.499990000000     0.332220000000    -0.113202   
N31      N      0.016920000000     0.515360000000     0.183180000000    -0.112597   
N32      N      0.023110000000     0.517210000000     0.110200000000    -0.172101   
N33      N      0.106910000000     0.033300000000     0.491910000000    -0.172442   
N34      N      0.181240000000     0.039390000000     0.485530000000    -0.113329   
N35      N      0.331550000000     0.019760000000     0.476030000000    -0.113153   
N36      N      0.405400000000     0.013200000000     0.486430000000    -0.17205    
N37      N      0.609640000000     0.995030000000     0.521890000000    -0.172015   
N38      N      0.683300000000     0.988620000000     0.533650000000    -0.113022   
N39      N      0.833990000000     0.971450000000     0.526470000000    -0.113418   
N40      N      0.908250000000     0.978520000000     0.520430000000    -0.17229    
N41      N      0.024030000000     0.608620000000     0.505310000000    -0.172031   
N42      N      0.035210000000     0.682180000000     0.500610000000    -0.113234   
N43      N      0.049010000000     0.832520000000     0.507590000000    -0.113286   
N44      N      0.035710000000     0.906060000000     0.506540000000    -0.172086   
N45      N      0.992130000000     0.403530000000     0.511150000000    -0.171889   
N46      N      0.980830000000     0.329930000000     0.514680000000    -0.113051   
N47      N      0.966540000000     0.179740000000     0.505430000000    -0.113259   
N48      N      0.979620000000     0.106140000000     0.506060000000    -0.172079   
Ni1      Ni     0.011810000000     0.007570000000     0.537150000000     0.994724   
Ni2      Ni     0.003300000000     0.004560000000     0.475330000000     0.994524   
Ni3      Ni     0.039200000000     0.501160000000     0.510780000000     0.994269   
Ni4      Ni     0.977030000000     0.511000000000     0.506090000000     1.00072    
Ni5      Ni     0.504700000000     0.972790000000     0.504510000000     0.996642   
Ni6      Ni     0.510410000000     0.035450000000     0.503460000000     0.992824   
Ni7      Ni     0.476680000000     0.009050000000     0.006030000000     0.997439   
Ni8      Ni     0.539470000000     0.003870000000     0.002300000000     0.997794   
Ni9      Ni     0.008910000000     0.482700000000     0.009600000000     1.00438    
Ni10     Ni     0.012250000000     0.545540000000     0.006670000000     0.995647   
Ni11     Ni     0.506630000000     0.506430000000     0.019190000000     1.00216    
Ni12     Ni     0.514060000000     0.506650000000     0.957170000000     0.997278   
O1       O      0.025310000000     0.958520000000     0.535430000000    -0.448542   
O2       O      0.998200000000     0.056200000000     0.534780000000    -0.451769   
O3       O      0.962820000000     0.994440000000     0.542090000000    -0.448872   
O4       O      0.059910000000     0.021070000000     0.528150000000    -0.450751   
O5       O      0.052250000000     0.017650000000     0.470380000000    -0.449771   
O6       O      0.955220000000     0.991050000000     0.484300000000    -0.450613   
O7       O      0.989840000000     0.053660000000     0.477080000000    -0.448125   
O8       O      0.016900000000     0.955890000000     0.477730000000    -0.45123    
O9       O      0.033560000000     0.501800000000     0.560640000000    -0.451863   
O10      O      0.040640000000     0.500470000000     0.460350000000    -0.44931    
O11      O      0.044920000000     0.551730000000     0.510560000000    -0.448538   
O12      O      0.029370000000     0.451500000000     0.511250000000    -0.450963   
O13      O      0.971280000000     0.460470000000     0.506480000000    -0.449608   
O14      O      0.986860000000     0.560630000000     0.505390000000    -0.451788   
O15      O      0.982570000000     0.509940000000     0.456330000000    -0.453688   
O16      O      0.975580000000     0.511760000000     0.556430000000    -0.451059   
O17      O      0.511310000000     0.973200000000     0.454790000000    -0.451768   
O18      O      0.498640000000     0.976470000000     0.554450000000    -0.449166   
O19      O      0.454740000000     0.979270000000     0.497360000000    -0.449541   
O20      O      0.555070000000     0.970430000000     0.511060000000    -0.449898   
O21      O      0.560010000000     0.029020000000     0.512730000000    -0.44964    
O22      O      0.460390000000     0.037770000000     0.494840000000    -0.449987   
O23      O      0.501310000000     0.035230000000     0.552890000000    -0.450007   
O24      O      0.519270000000     0.031470000000     0.453850000000    -0.447791   
O25      O      0.483300000000     0.058710000000     0.012770000000    -0.453108   
O26      O      0.474100000000     0.959060000000     0.999000000000    -0.452863   
O27      O      0.481180000000     0.001210000000     0.055670000000    -0.449294   
O28      O      0.476400000000     0.016530000000     0.956130000000    -0.448956   
O29      O      0.535030000000     0.011270000000     0.952810000000    -0.451868   
O30      O      0.539870000000     0.996840000000     0.052060000000    -0.451548   
O31      O      0.532720000000     0.954110000000     0.994930000000    -0.450375   
O32      O      0.542010000000     0.053980000000     0.009850000000    -0.45054    
O33      O      0.002140000000     0.483000000000     0.959720000000    -0.452416   
O34      O      0.016230000000     0.486440000000     0.058970000000    -0.454502   
O35      O      0.958760000000     0.487970000000     0.016660000000    -0.451286   
O36      O      0.059110000000     0.481640000000     0.003160000000    -0.45404    
O37      O      0.062410000000     0.540280000000     0.999630000000    -0.450203   
O38      O      0.962100000000     0.546620000000     0.013500000000    -0.452844   
O39      O      0.018930000000     0.545200000000     0.056730000000    -0.448867   
O40      O      0.004570000000     0.541720000000     0.957170000000    -0.451493   
O41      O      0.520350000000     0.457820000000     0.018810000000    -0.453127   
O42      O      0.493330000000     0.555360000000     0.015450000000    -0.450915   
O43      O      0.458430000000     0.492660000000     0.011320000000    -0.453051   
O44      O      0.555430000000     0.519540000000     0.022980000000    -0.453355   
O45      O      0.563080000000     0.517540000000     0.965130000000    -0.450906   
O46      O      0.464440000000     0.496380000000     0.953360000000    -0.451175   
O47      O      0.503480000000     0.556020000000     0.957970000000    -0.453284   
O48      O      0.523900000000     0.456890000000     0.960510000000    -0.449819   


