data_structure

_audit_creation_method RASPA-1.0
_audit_creation_date 2023-6-5
_audit_author_name 'Poobodin Mano'

_cell_length_a    60.625
_cell_length_b    61.1647
_cell_length_c    36.8041
_cell_angle_alpha 89.943
_cell_angle_beta  90.0566
_cell_angle_gamma 119.905
_cell_volume      118303

_symmetry_cell_setting          triclinic
_symmetry_space_group_name_Hall 'P 1'
_symmetry_space_group_name_H-M  'P 1'
_symmetry_Int_Tables_number     1

_symmetry_equiv_pos_as_xyz 'x,y,z'

loop_
_atom_site_label
_atom_site_type_symbol
_atom_site_fract_x
_atom_site_fract_y
_atom_site_fract_z
_atom_site_charge
C1       C      0.863080000000     0.652640000000     0.587890000000     0.43015    
C2       C      0.858700000000     0.670390000000     0.722450000000     0.430759   
C3       C      0.812310000000     0.639410000000     0.651470000000     0.427977   
C4       C      0.909300000000     0.683470000000     0.658870000000     0.428972   
C5       C      0.192110000000     0.845260000000     0.844380000000     0.429284   
C6       C      0.225840000000     0.873980000000     0.715650000000     0.431958   
C7       C      0.252080000000     0.888970000000     0.806620000000     0.426832   
C8       C      0.164550000000     0.829720000000     0.752310000000     0.42979    
C9       C      0.553510000000     0.054910000000     0.975830000000     0.427396   
C10      C      0.534410000000     0.045030000000     0.839540000000     0.427885   
C11      C      0.591250000000     0.067880000000     0.893690000000     0.432291   
C12      C      0.496830000000     0.031860000000     0.921700000000     0.431807   
C13      C      0.177470000000     0.335480000000     0.311350000000     0.426737   
C14      C      0.145840000000     0.338450000000     0.438830000000     0.431876   
C15      C      0.115900000000     0.312120000000     0.353090000000     0.428734   
C16      C      0.207510000000     0.361530000000     0.398830000000     0.430859   
C17      C      0.859120000000     0.173680000000     0.078840000000     0.429222   
C18      C      0.817950000000     0.169290000000     0.201600000000     0.429387   
C19      C      0.795640000000     0.154360000000     0.109240000000     0.42811    
C20      C      0.881890000000     0.189480000000     0.172180000000     0.426894   
C21      C      0.526870000000     0.510660000000     0.467030000000     0.429358   
C22      C      0.494470000000     0.500080000000     0.597270000000     0.428132   
C23      C      0.464280000000     0.485020000000     0.508740000000     0.427714   
C24      C      0.555380000000     0.525100000000     0.556540000000     0.429286   
C25      C      0.202240000000     0.341380000000     0.936000000000     0.431147   
C26      C      0.200090000000     0.347800000000     0.797780000000     0.428542   
C27      C      0.171500000000     0.362970000000     0.872870000000     0.427414   
C28      C      0.230910000000     0.326690000000     0.859770000000     0.427003   
C29      C      0.369040000000     0.159610000000     0.747260000000     0.430692   
C30      C      0.377920000000     0.202370000000     0.625120000000     0.434892   
C31      C      0.358150000000     0.209750000000     0.717580000000     0.432018   
C32      C      0.387570000000     0.155760000000     0.651670000000     0.432856   
C33      C      0.988390000000     0.499730000000     0.862450000000     0.429791   
C34      C      0.987860000000     0.482040000000     0.998100000000     0.432311   
C35      C      0.015370000000     0.469990000000     0.916920000000     0.428938   
C36      C      0.961690000000     0.511410000000     0.942570000000     0.430269   
C37      C      0.706980000000     0.872530000000     0.272210000000     0.429109   
C38      C      0.715470000000     0.864210000000     0.408940000000     0.428648   
C39      C      0.726830000000     0.836960000000     0.327500000000     0.430509   
C40      C      0.695580000000     0.899440000000     0.351180000000     0.430418   
C41      C      0.842330000000     0.644300000000     0.216740000000     0.428819   
C42      C      0.831070000000     0.674990000000     0.092660000000     0.429064   
C43      C      0.820550000000     0.686570000000     0.185640000000     0.426978   
C44      C      0.852300000000     0.632950000000     0.122880000000     0.427      
C45      C      0.542800000000     0.029800000000     0.469440000000     0.439094   
C46      C      0.520530000000     0.049500000000     0.344540000000     0.431116   
C47      C      0.503400000000     0.054560000000     0.437760000000     0.426803   
C48      C      0.560120000000     0.025200000000     0.377890000000     0.428732   
C49      C      0.362390000000     0.150410000000     0.118470000000     0.428611   
C50      C      0.377180000000     0.182750000000     0.249220000000     0.426517   
C51      C      0.391880000000     0.212020000000     0.158890000000     0.429665   
C52      C      0.347920000000     0.121940000000     0.208280000000     0.427532   
C53      C      0.534710000000     0.501950000000     0.966590000000     0.434159   
C54      C      0.560570000000     0.523720000000     0.098870000000     0.432767   
C55      C      0.572840000000     0.557720000000     0.012630000000     0.431172   
C56      C      0.520830000000     0.465360000000     0.050390000000     0.427806   
C57      C      0.184690000000     0.831270000000     0.222110000000     0.428104   
C58      C      0.181540000000     0.815210000000     0.358840000000     0.429063   
C59      C      0.210930000000     0.870300000000     0.301650000000     0.430119   
C60      C      0.155380000000     0.775690000000     0.279230000000     0.429354   
C61      C      0.003360000000     0.511710000000     0.490090000000     0.432022   
C62      C      0.965970000000     0.466810000000     0.369790000000     0.430773   
C63      C      0.956300000000     0.447850000000     0.463830000000     0.431095   
C64      C      0.012100000000     0.529950000000     0.395070000000     0.429334   
C65      C      0.829480000000     0.172950000000     0.709560000000     0.434285   
C66      C      0.814350000000     0.153070000000     0.574760000000     0.431714   
C67      C      0.804850000000     0.119220000000     0.661450000000     0.435931   
C68      C      0.839530000000     0.210740000000     0.625390000000     0.427743   
C69      C      0.724150000000     0.828130000000     0.772820000000     0.432292   
C70      C      0.716740000000     0.858440000000     0.899030000000     0.430513   
C71      C      0.740200000000     0.888820000000     0.812980000000     0.430767   
C72      C      0.700630000000     0.798120000000     0.858660000000     0.427451   
C73      C      0.781650000000     0.958820000000     0.807380000000    -0.0325778  
C74      C      0.785060000000     0.054400000000     0.685690000000    -0.0321412  
C75      C      0.800520000000     0.102000000000     0.722820000000     0.00136148 
C76      C      0.779090000000     0.073680000000     0.668730000000    -0.00381643 
C77      C      0.765120000000     0.018250000000     0.764450000000    -0.0533402  
C78      C      0.801840000000     0.005570000000     0.744550000000    -0.0551869  
C79      C      0.785600000000     0.034770000000     0.742580000000     0.0607986  
C80      C      0.803960000000     0.080720000000     0.740530000000    -0.0408623  
C81      C      0.780350000000     0.988250000000     0.764110000000     0.0629358  
C82      C      0.752390000000     0.942860000000     0.753260000000    -0.0460457  
C83      C      0.762640000000     0.995290000000     0.775610000000    -0.057546   
C84      C      0.735400000000     0.921040000000     0.779280000000     0.0445397  
C85      C      0.776920000000     0.931910000000     0.811350000000    -0.000849088
C86      C      0.804690000000     0.028850000000     0.734220000000    -0.055783   
C87      C      0.935970000000     0.384820000000     0.505190000000    -0.0309287  
C88      C      0.843220000000     0.272900000000     0.604210000000    -0.0305639  
C89      C      0.874380000000     0.248810000000     0.598300000000    -0.00418124 
C90      C      0.830220000000     0.244230000000     0.608960000000    -0.00489124 
C91      C      0.874970000000     0.311040000000     0.529140000000    -0.0543537  
C92      C      0.897810000000     0.352130000000     0.576610000000    -0.0537704  
C93      C      0.874620000000     0.306790000000     0.566540000000     0.0615742  
C94      C      0.884480000000     0.277060000000     0.594760000000    -0.0305258  
C95      C      0.898870000000     0.356380000000     0.539050000000     0.060308   
C96      C      0.898880000000     0.389610000000     0.503210000000    -0.0435367  
C97      C      0.886960000000     0.335550000000     0.515390000000    -0.0560049  
C98      C      0.914590000000     0.417690000000     0.492520000000     0.040234   
C99      C      0.954080000000     0.412610000000     0.497780000000    -0.00479909 
C100     C      0.885790000000     0.327540000000     0.590370000000    -0.0568615  
C101     C      0.031600000000     0.591420000000     0.347550000000    -0.0312225  
C102     C      0.139760000000     0.710630000000     0.287910000000    -0.0306432  
C103     C      0.112600000000     0.737790000000     0.272970000000    -0.00517128 
C104     C      0.152070000000     0.734570000000     0.264740000000    -0.00493777 
C105     C      0.085170000000     0.651890000000     0.280000000000    -0.0547197  
C106     C      0.088140000000     0.646740000000     0.355100000000    -0.0536059  
C107     C      0.099520000000     0.673360000000     0.301320000000     0.061535   
C108     C      0.101370000000     0.713670000000     0.295800000000    -0.0307222  
C109     C      0.073520000000     0.625270000000     0.333850000000     0.0604429  
C110     C      0.065520000000     0.582400000000     0.339030000000    -0.0435809  
C111     C      0.072210000000     0.628020000000     0.296000000000    -0.0560859  
C112     C      0.052210000000     0.558100000000     0.362150000000     0.041161   
C113     C      0.017240000000     0.569950000000     0.374210000000    -0.00334856 
C114     C      0.101040000000     0.670620000000     0.339100000000    -0.0567555  
C115     C      0.588100000000     0.620170000000     0.971960000000    -0.031945   
C116     C      0.693320000000     0.741100000000     0.906380000000    -0.0308439  
C117     C      0.662150000000     0.756490000000     0.865320000000    -0.00463388 
C118     C      0.706020000000     0.762430000000     0.878430000000    -0.00526345 
C119     C      0.644030000000     0.677400000000     0.899070000000    -0.0540593  
C120     C      0.640150000000     0.678750000000     0.974660000000    -0.0544809  
C121     C      0.655040000000     0.700710000000     0.916910000000     0.0610956  
C122     C      0.651650000000     0.735920000000     0.894340000000    -0.0306704  
C123     C      0.629230000000     0.655460000000     0.956770000000     0.0616876  
C124     C      0.627220000000     0.616100000000     0.975230000000    -0.0446751  
C125     C      0.631080000000     0.654930000000     0.918710000000    -0.0567629  
C126     C      0.607770000000     0.587590000000     0.973310000000     0.0409794  
C127     C      0.574310000000     0.597550000000     0.997440000000    -0.00104628 
C128     C      0.652810000000     0.701250000000     0.954960000000    -0.0561752  
C129     C      0.268850000000     0.935370000000     0.307810000000    -0.0309947  
C130     C      0.296150000000     0.058640000000     0.237890000000    -0.0305001  
C131     C      0.351610000000     0.086720000000     0.234080000000    -0.00474908 
C132     C      0.309890000000     0.087410000000     0.237030000000    -0.0050156  
C133     C      0.295360000000     0.015800000000     0.300120000000    -0.0543644  
C134     C      0.273320000000     0.979760000000     0.245040000000    -0.0537237  
C135     C      0.298500000000     0.023590000000     0.263800000000     0.0613931  
C136     C      0.335670000000     0.057900000000     0.235150000000    -0.0308859  
C137     C      0.269830000000     0.971990000000     0.281400000000     0.0608909  
C138     C      0.231780000000     0.939860000000     0.310960000000    -0.0436966  
C139     C      0.281230000000     0.990220000000     0.308990000000    -0.0564058  
C140     C      0.213560000000     0.911140000000     0.313450000000     0.0429034  
C141     C      0.253880000000     0.906610000000     0.306250000000    -0.00212117 
C142     C      0.287590000000     0.005340000000     0.236160000000    -0.0566098  
C143     C      0.400980000000     0.273890000000     0.123850000000    -0.0308488  
C144     C      0.504740000000     0.399870000000     0.075560000000    -0.0306475  
C145     C      0.478900000000     0.428870000000     0.064900000000    -0.00510865 
C146     C      0.517390000000     0.423570000000     0.051960000000    -0.00480962 
C147     C      0.450380000000     0.342580000000     0.064840000000    -0.0544697  
C148     C      0.453340000000     0.334050000000     0.138900000000    -0.0536411  
C149     C      0.464010000000     0.363110000000     0.088090000000     0.061449   
C150     C      0.468210000000     0.404740000000     0.087650000000    -0.0305412  
C151     C      0.439870000000     0.313470000000     0.115570000000     0.0603223  
C152     C      0.440540000000     0.274430000000     0.115610000000    -0.0434925  
C153     C      0.438420000000     0.317960000000     0.078300000000    -0.0560422  
C154     C      0.431070000000     0.249100000000     0.135410000000     0.0410496  
C155     C      0.389180000000     0.249750000000     0.146330000000    -0.00439446 
C156     C      0.465370000000     0.358710000000     0.125380000000    -0.0567773  
C157     C      0.750580000000     0.842220000000     0.685600000000    -0.0317728  
C158     C      0.700210000000     0.837070000000     0.501960000000    -0.0306239  
C159     C      0.741140000000     0.880450000000     0.464800000000    -0.00490761 
C160     C      0.694210000000     0.847240000000     0.467670000000    -0.00518714 
C161     C      0.722900000000     0.862430000000     0.587420000000    -0.0540213  
C162     C      0.732190000000     0.822370000000     0.596970000000    -0.0543824  
C163     C      0.725360000000     0.850120000000     0.556940000000     0.0611767  
C164     C      0.744990000000     0.868640000000     0.499190000000    -0.0307745  
C165     C      0.729000000000     0.834210000000     0.627430000000     0.061399   
C166     C      0.704160000000     0.814620000000     0.681460000000    -0.0445265  
C167     C      0.724800000000     0.854670000000     0.622430000000    -0.0564005  
C168     C      0.704290000000     0.801430000000     0.716680000000     0.0424309  
C169     C      0.751070000000     0.829760000000     0.721660000000    -0.00566574 
C170     C      0.730530000000     0.830280000000     0.561940000000    -0.0564127  
C171     C      0.688300000000     0.868880000000     0.984370000000    -0.0310299  
C172     C      0.725910000000     0.886730000000     0.175960000000    -0.0307865  
C173     C      0.679120000000     0.862170000000     0.218390000000    -0.00514563 
C174     C      0.725930000000     0.895240000000     0.215000000000    -0.00472961 
C175     C      0.700700000000     0.891670000000     0.097450000000    -0.0544039  
C176     C      0.704290000000     0.851230000000     0.068890000000    -0.0536526  
C177     C      0.700980000000     0.873830000000     0.121040000000     0.0613584  
C178     C      0.681000000000     0.855330000000     0.178990000000    -0.0305896  
C179     C      0.703940000000     0.869020000000     0.045270000000     0.0607773  
C180     C      0.732850000000     0.885180000000     0.994760000000    -0.0435729  
C181     C      0.702440000000     0.889520000000     0.059910000000    -0.0562743  
C182     C      0.737670000000     0.878090000000     0.956810000000     0.0425966  
C183     C      0.689260000000     0.860840000000     0.945310000000    -0.00312604 
C184     C      0.703090000000     0.853670000000     0.106470000000    -0.0566391  
C185     C      0.771810000000     0.815780000000     0.298010000000    -0.0305956  
C186     C      0.776850000000     0.705430000000     0.230030000000    -0.0304443  
C187     C      0.829890000000     0.728420000000     0.206980000000    -0.00494268 
C188     C      0.784080000000     0.691640000000     0.202020000000    -0.0050184  
C189     C      0.778320000000     0.762900000000     0.226480000000    -0.0543869  
C190     C      0.772330000000     0.759270000000     0.301980000000    -0.0538371  
C191     C      0.784610000000     0.747090000000     0.245910000000     0.0614508  
C192     C      0.820000000000     0.740030000000     0.234810000000    -0.0305231  
C193     C      0.765760000000     0.774900000000     0.282470000000     0.0602215  
C194     C      0.729360000000     0.780450000000     0.290250000000    -0.0433228  
C195     C      0.769030000000     0.776740000000     0.244450000000    -0.0559542  
C196     C      0.717460000000     0.792840000000     0.313500000000     0.0398312  
C197     C      0.762660000000     0.829200000000     0.323560000000    -0.00598045 
C198     C      0.781750000000     0.745490000000     0.283960000000    -0.0567968  
C199     C      0.648650000000     0.921530000000     0.355980000000    -0.0304984  
C200     C      0.618730000000     0.023270000000     0.365400000000    -0.030955   
C201     C      0.564810000000     0.991120000000     0.349230000000    -0.00499935 
C202     C      0.602490000000     0.035020000000     0.354560000000    -0.00518877 
C203     C      0.632330000000     0.979490000000     0.323080000000    -0.0544949  
C204     C      0.645380000000     0.970660000000     0.392270000000    -0.0537887  
C205     C      0.624550000000     0.987360000000     0.353760000000     0.0614176  
C206     C      0.582110000000     0.980810000000     0.360660000000    -0.0306522  
C207     C      0.652880000000     0.962470000000     0.361580000000     0.0604434  
C208     C      0.689830000000     0.958540000000     0.347380000000    -0.0433604  
C209     C      0.646230000000     0.967030000000     0.326800000000    -0.0560485  
C210     C      0.703950000000     0.944030000000     0.356280000000     0.0397159  
C211     C      0.660190000000     0.905680000000     0.368320000000    -0.00563523 
C212     C      0.631220000000     0.982880000000     0.388540000000    -0.056596   
C213     C      0.015560000000     0.506870000000     0.582860000000    -0.032019   
C214     C      0.011620000000     0.533180000000     0.774980000000    -0.0306693  
C215     C      0.970650000000     0.484910000000     0.801190000000    -0.0042904  
C216     C      0.001220000000     0.531260000000     0.813360000000    -0.00552546 
C217     C      0.978130000000     0.511650000000     0.687620000000    -0.0539126  
C218     C      0.027710000000     0.529980000000     0.662480000000    -0.0538232  
C219     C      0.997760000000     0.517830000000     0.712760000000     0.0611942  
C220     C      0.982750000000     0.488680000000     0.763520000000    -0.0309426  
C221     C      0.008190000000     0.524410000000     0.637390000000     0.0607358  
C222     C      0.999270000000     0.536170000000     0.577220000000    -0.0442799  
C223     C      0.983080000000     0.514350000000     0.650310000000    -0.0553398  
C224     C      0.010880000000     0.543960000000     0.539180000000     0.0412234  
C225     C      0.027580000000     0.514180000000     0.544980000000    -0.00499612 
C226     C      0.022580000000     0.526230000000     0.699670000000    -0.056059   
C227     C      0.965990000000     0.447500000000     0.085570000000    -0.0305875  
C228     C      0.952380000000     0.470080000000     0.276840000000    -0.0313589  
C229     C      0.963080000000     0.437180000000     0.321610000000    -0.00402535 
C230     C      0.940440000000     0.461860000000     0.314690000000    -0.00457191 
C231     C      0.944520000000     0.445610000000     0.197040000000    -0.0542682  
C232     C      0.995180000000     0.473030000000     0.174520000000    -0.0534026  
C233     C      0.963910000000     0.455170000000     0.223190000000     0.0612508  
C234     C      0.974270000000     0.445770000000     0.283660000000    -0.0309916  
C235     C      0.975830000000     0.462990000000     0.148300000000     0.0603233  
C236     C      0.985730000000     0.492070000000     0.098510000000    -0.0435829  
C237     C      0.950270000000     0.449880000000     0.160050000000    -0.055537   
C238     C      0.998520000000     0.499440000000     0.060950000000     0.0407304  
C239     C      0.977890000000     0.452190000000     0.047860000000    -0.00569242 
C240     C      0.989370000000     0.469710000000     0.211560000000    -0.0560613  
C241     C      0.905700000000     0.520250000000     0.965740000000    -0.0309124  
C242     C      0.896200000000     0.614170000000     0.078930000000    -0.0305705  
C243     C      0.841750000000     0.593990000000     0.089930000000    -0.00462571 
C244     C      0.886810000000     0.632370000000     0.088950000000    -0.00489866 
C245     C      0.885750000000     0.576370000000     0.003160000000    -0.0542811  
C246     C      0.907660000000     0.553550000000     0.044080000000    -0.0536517  
C247     C      0.886110000000     0.578060000000     0.041110000000     0.0612578  
C248     C      0.853830000000     0.577990000000     0.080090000000    -0.0306922  
C249     C      0.908110000000     0.552630000000     0.006060000000     0.0605801  
C250     C      0.943610000000     0.560740000000     0.967890000000    -0.0436987  
C251     C      0.896530000000     0.563700000000     0.985670000000    -0.0561496  
C252     C      0.960970000000     0.550370000000     0.956350000000     0.0424637  
C253     C      0.919780000000     0.506200000000     0.955520000000    -0.00312651 
C254     C      0.896630000000     0.566030000000     0.061590000000    -0.0566593  
C255     C      0.383680000000     0.143910000000     0.839830000000    -0.0314847  
C256     C      0.337000000000     0.139880000000     0.025480000000    -0.0306716  
C257     C      0.377570000000     0.137520000000     0.064650000000    -0.00470732 
C258     C      0.333500000000     0.132260000000     0.065610000000    -0.00534056 
C259     C      0.350770000000     0.115480000000     0.946770000000    -0.0539998  
C260     C      0.363940000000     0.161980000000     0.915040000000    -0.0540767  
C261     C      0.355490000000     0.135940000000     0.969010000000     0.0610015  
C262     C      0.379600000000     0.145300000000     0.024740000000    -0.0308631  
C263     C      0.359020000000     0.141460000000     0.892830000000     0.0614236  
C264     C      0.337880000000     0.129160000000     0.833760000000    -0.0440991  
C265     C      0.352720000000     0.118190000000     0.909000000000    -0.0567483  
C266     C      0.342160000000     0.127230000000     0.792530000000     0.0431851  
C267     C      0.390010000000     0.155940000000     0.802150000000    -0.000375744
C268     C      0.362450000000     0.159400000000     0.952840000000    -0.0562199  
C269     C      0.361240000000     0.197060000000     0.529420000000    -0.0306659  
C270     C      0.406140000000     0.203600000000     0.342360000000    -0.0306859  
C271     C      0.357400000000     0.185840000000     0.305460000000    -0.00490779 
C272     C      0.402410000000     0.191370000000     0.304940000000    -0.00455018 
C273     C      0.379400000000     0.179120000000     0.424970000000    -0.0539285  
C274     C      0.392730000000     0.227410000000     0.449510000000    -0.0543442  
C275     C      0.384510000000     0.198210000000     0.399700000000     0.0610236  
C276     C      0.363920000000     0.198080000000     0.343030000000    -0.0304244  
C277     C      0.386750000000     0.208090000000     0.474760000000     0.061149   
C278     C      0.406730000000     0.212800000000     0.533650000000    -0.0439606  
C279     C      0.380670000000     0.183980000000     0.462240000000    -0.0566021  
C280     C      0.407820000000     0.223030000000     0.572170000000     0.039135   
C281     C      0.360510000000     0.206850000000     0.567250000000    -0.00542124 
C282     C      0.391850000000     0.222650000000     0.412240000000    -0.0563908  
C283     C      0.392460000000     0.106210000000     0.601500000000    -0.0319531  
C284     C      0.481980000000     0.097150000000     0.478260000000    -0.0307717  
C285     C      0.463640000000     0.043270000000     0.470120000000    -0.00504975 
C286     C      0.501140000000     0.088790000000     0.468770000000    -0.00413842 
C287     C      0.450120000000     0.092270000000     0.555640000000    -0.0543401  
C288     C      0.417470000000     0.103440000000     0.516320000000    -0.0541003  
C289     C      0.446810000000     0.087150000000     0.518370000000     0.0611996  
C290     C      0.446820000000     0.054470000000     0.480430000000    -0.0307014  
C291     C      0.420910000000     0.108700000000     0.553630000000     0.0603651  
C292     C      0.426850000000     0.147010000000     0.581100000000    -0.0425338  
C293     C      0.437470000000     0.103060000000     0.573170000000    -0.0562539  
C294     C      0.413290000000     0.160680000000     0.596240000000     0.0350107  
C295     C      0.377700000000     0.118460000000     0.616270000000    -0.00391977 
C296     C      0.430390000000     0.092880000000     0.498680000000    -0.0567514  
C297     C      0.072750000000     0.462830000000     0.899880000000    -0.0308703  
C298     C      0.112290000000     0.367090000000     0.885280000000    -0.0306402  
C299     C      0.166800000000     0.400620000000     0.874520000000    -0.00465647 
C300     C      0.128040000000     0.356400000000     0.868530000000    -0.00510311 
C301     C      0.100160000000     0.414830000000     0.856170000000    -0.0544069  
C302     C      0.083270000000     0.414550000000     0.926950000000    -0.0535761  
C303     C      0.107200000000     0.404050000000     0.884200000000     0.0613312  
C304     C      0.149010000000     0.408760000000     0.891410000000    -0.0306088  
C305     C      0.076070000000     0.425190000000     0.898840000000     0.0601767  
C306     C      0.035750000000     0.422810000000     0.887150000000    -0.0434966  
C307     C      0.084830000000     0.425400000000     0.863300000000    -0.0560652  
C308     C      0.017280000000     0.431700000000     0.899780000000     0.0407503  
C309     C      0.057470000000     0.473980000000     0.916380000000    -0.00442147 
C310     C      0.098810000000     0.404160000000     0.919840000000    -0.0567583  
C311     C      0.313220000000     0.230040000000     0.752100000000    -0.0306683  
C312     C      0.290190000000     0.321890000000     0.846130000000    -0.0305046  
C313     C      0.234760000000     0.290280000000     0.842040000000    -0.0043896  
C314     C      0.274190000000     0.334870000000     0.848000000000    -0.00452023 
C315     C      0.298910000000     0.289810000000     0.775510000000    -0.0542457  
C316     C      0.315220000000     0.266140000000     0.825080000000    -0.0537946  
C317     C      0.293210000000     0.289410000000     0.812400000000     0.0615285  
C318     C      0.253470000000     0.280480000000     0.840540000000    -0.0304993  
C319     C      0.319990000000     0.265610000000     0.787930000000     0.0604555  
C320     C      0.355450000000     0.265900000000     0.757250000000    -0.0434227  
C321     C      0.312260000000     0.278130000000     0.763260000000    -0.0560273  
C322     C      0.368140000000     0.250030000000     0.748560000000     0.0403457  
C323     C      0.322910000000     0.211760000000     0.745740000000    -0.0050718  
C324     C      0.302050000000     0.278070000000     0.837380000000    -0.0568146  
C325     C      0.503720000000     0.481160000000     0.876450000000    -0.0309398  
C326     C      0.490760000000     0.519780000000     0.693370000000    -0.0299804  
C327     C      0.480670000000     0.474390000000     0.652600000000    -0.00385357 
C328     C      0.493490000000     0.521980000000     0.652040000000    -0.00423549 
C329     C      0.520450000000     0.497240000000     0.757720000000    -0.0537565  
C330     C      0.491910000000     0.507190000000     0.807630000000    -0.0541217  
C331     C      0.500950000000     0.501310000000     0.745220000000     0.0616251  
C332     C      0.477440000000     0.475680000000     0.693590000000    -0.030203   
C333     C      0.512000000000     0.504010000000     0.820010000000     0.0613411  
C334     C      0.544360000000     0.519410000000     0.868060000000    -0.0414757  
C335     C      0.525680000000     0.498090000000     0.794790000000    -0.0562531  
C336     C      0.547430000000     0.524700000000     0.909020000000     0.032742   
C337     C      0.504470000000     0.485160000000     0.917450000000    -0.00421777 
C338     C      0.486050000000     0.505410000000     0.770660000000    -0.0563396  
C339     C      0.564170000000     0.546280000000     0.194630000000    -0.0315813  
C340     C      0.545080000000     0.495260000000     0.378510000000    -0.0305306  
C341     C      0.543310000000     0.537420000000     0.412520000000    -0.00445357 
C342     C      0.547300000000     0.498210000000     0.419800000000    -0.00527507 
C343     C      0.580810000000     0.536550000000     0.306020000000    -0.0540617  
C344     C      0.539550000000     0.504030000000     0.262510000000    -0.0542407  
C345     C      0.557700000000     0.519380000000     0.322350000000     0.0613122  
C346     C      0.540850000000     0.532480000000     0.371650000000    -0.0307619  
C347     C      0.562620000000     0.521290000000     0.246210000000     0.0617399  
C348     C      0.583590000000     0.519340000000     0.190440000000    -0.0443259  
C349     C      0.583260000000     0.537760000000     0.268240000000    -0.0567562  
C350     C      0.588940000000     0.528080000000     0.150130000000     0.0435972  
C351     C      0.556010000000     0.542550000000     0.154960000000     0.000130166
C352     C      0.536920000000     0.503210000000     0.300230000000    -0.0563396  
C353     C      0.861820000000     0.184830000000     0.798460000000    -0.0302363  
C354     C      0.852380000000     0.148190000000     0.990400000000    -0.0308186  
C355     C      0.882580000000     0.197610000000     0.023930000000    -0.00486615 
C356     C      0.865040000000     0.150910000000     0.027490000000    -0.00509619 
C357     C      0.871790000000     0.163770000000     0.904390000000    -0.0542567  
C358     C      0.830410000000     0.169750000000     0.885770000000    -0.0540013  
C359     C      0.858490000000     0.168280000000     0.931760000000     0.0610602  
C360     C      0.870010000000     0.193940000000     0.986680000000    -0.0307365  
C361     C      0.844750000000     0.166940000000     0.858240000000     0.0608393  
C362     C      0.821510000000     0.145900000000     0.803030000000    -0.0442195  
C363     C      0.864750000000     0.162630000000     0.867940000000    -0.0560969  
C364     C      0.811100000000     0.151650000000     0.768380000000     0.0411784  
C365     C      0.854090000000     0.192810000000     0.763710000000    -0.00517394 
C366     C      0.836870000000     0.169960000000     0.922270000000    -0.0563443  
C367     C      0.830600000000     0.166530000000     0.478840000000    -0.0317828  
C368     C      0.794900000000     0.140780000000     0.288310000000    -0.0307205  
C369     C      0.813210000000     0.190430000000     0.255920000000    -0.0045672  
C370     C      0.787550000000     0.143310000000     0.249540000000    -0.00414875 
C371     C      0.790350000000     0.167350000000     0.373530000000    -0.0543366  
C372     C      0.819320000000     0.146340000000     0.398090000000    -0.053552   
C373     C      0.802890000000     0.160260000000     0.348260000000     0.0613094  
C374     C      0.820050000000     0.186710000000     0.294770000000    -0.031336   
C375     C      0.805930000000     0.152440000000     0.423360000000     0.0604377  
C376     C      0.784560000000     0.141120000000     0.483120000000    -0.0438249  
C377     C      0.792190000000     0.163980000000     0.410780000000    -0.05539    
C378     C      0.786260000000     0.130850000000     0.520460000000     0.0400672  
C379     C      0.833990000000     0.156640000000     0.515390000000    -0.00438493 
C380     C      0.818380000000     0.150750000000     0.361040000000    -0.0563605  
C381     C      0.161290000000     0.368410000000     0.523000000000    -0.0313016  
C382     C      0.174040000000     0.329380000000     0.705820000000    -0.0303327  
C383     C      0.216550000000     0.372490000000     0.741020000000    -0.00486497 
C384     C      0.186500000000     0.325370000000     0.739200000000    -0.00515152 
C385     C      0.194530000000     0.351650000000     0.618960000000    -0.0539936  
C386     C      0.149850000000     0.354230000000     0.614000000000    -0.0543648  
C387     C      0.182930000000     0.353630000000     0.650710000000     0.0611971  
C388     C      0.202970000000     0.374760000000     0.707220000000    -0.0309799  
C389     C      0.160790000000     0.351040000000     0.582410000000     0.0613174  
C390     C      0.140440000000     0.322460000000     0.531990000000    -0.0447241  
C391     C      0.183730000000     0.350570000000     0.584990000000    -0.0561414  
C392     C      0.123910000000     0.318270000000     0.498410000000     0.0413686  
C393     C      0.145020000000     0.364580000000     0.489050000000    -0.00645678 
C394     C      0.160870000000     0.355710000000     0.647920000000    -0.0563093  
C395     C      0.184360000000     0.311870000000     0.027710000000    -0.0306931  
C396     C      0.199790000000     0.353840000000     0.215030000000    -0.030479   
C397     C      0.181750000000     0.310160000000     0.263070000000    -0.00522484 
C398     C      0.188160000000     0.354730000000     0.251200000000    -0.00373778 
C399     C      0.171820000000     0.324340000000     0.139270000000    -0.0541242  
C400     C      0.217910000000     0.331440000000     0.111830000000    -0.0538608  
C401     C      0.190720000000     0.326620000000     0.163380000000     0.0616002  
C402     C      0.192500000000     0.311860000000     0.224740000000    -0.0302568  
C403     C      0.199020000000     0.329320000000     0.087710000000     0.0604166  
C404     C      0.208910000000     0.356970000000     0.036300000000    -0.0435818  
C405     C      0.175930000000     0.325940000000     0.101860000000    -0.0560889  
C406     C      0.218150000000     0.361640000000     0.996590000000     0.0407432  
C407     C      0.192970000000     0.313750000000     0.988430000000    -0.00562274 
C408     C      0.213980000000     0.330380000000     0.149420000000    -0.0568292  
C409     C      0.052650000000     0.296810000000     0.311890000000    -0.0310115  
C410     C      0.939370000000     0.194890000000     0.220290000000    -0.030816   
C411     C      0.918160000000     0.226660000000     0.198930000000    -0.00442894 
C412     C      0.911000000000     0.182190000000     0.210500000000    -0.00512401 
C413     C      0.975290000000     0.238950000000     0.288360000000    -0.0543636  
C414     C      0.018720000000     0.249870000000     0.248180000000    -0.0537796  
C415     C      0.972740000000     0.231410000000     0.251990000000     0.0612895  
C416     C      0.946020000000     0.236570000000     0.208350000000    -0.0305355  
C417     C      0.021290000000     0.257700000000     0.284470000000     0.0601883  
C418     C      0.049500000000     0.257790000000     0.330760000000    -0.043683   
C419     C      0.999270000000     0.251970000000     0.304570000000    -0.055756   
C420     C      0.077410000000     0.270580000000     0.343270000000     0.0417159  
C421     C      0.080990000000     0.312470000000     0.320590000000    -0.00410371 
C422     C      0.994680000000     0.236890000000     0.231920000000    -0.0565143  
C423     C      0.277410000000     0.401850000000     0.399460000000    -0.0320342  
C424     C      0.400410000000     0.477460000000     0.485790000000    -0.0304806  
C425     C      0.425850000000     0.447570000000     0.486330000000    -0.00389318 
C426     C      0.424710000000     0.486690000000     0.508280000000    -0.00567777 
C427     C      0.344340000000     0.412590000000     0.475590000000    -0.0533905  
C428     C      0.325610000000     0.440460000000     0.440650000000    -0.0532236  
C429     C      0.360940000000     0.438300000000     0.468770000000     0.0603757  
C430     C      0.402550000000     0.441560000000     0.463170000000    -0.0310092  
C431     C      0.308940000000     0.414770000000     0.447710000000     0.0598258  
C432     C      0.264680000000     0.380170000000     0.457410000000    -0.0434108  
C433     C      0.318960000000     0.400760000000     0.464390000000    -0.0545758  
C434     C      0.236880000000     0.373220000000     0.451440000000     0.0391746  
C435     C      0.250470000000     0.396950000000     0.392070000000    -0.00292529 
C436     C      0.351360000000     0.451950000000     0.449990000000    -0.0550748  
C437     C      0.528730000000     0.009380000000     0.561440000000    -0.0322708  
C438     C      0.544210000000     0.063880000000     0.743680000000    -0.0308017  
C439     C      0.517070000000     0.017390000000     0.785590000000    -0.00545794 
C440     C      0.533000000000     0.064150000000     0.780880000000    -0.00508076 
C441     C      0.519670000000     0.039400000000     0.661520000000    -0.054076   
C442     C      0.562810000000     0.036620000000     0.642380000000    -0.0542233  
C443     C      0.535610000000     0.039090000000     0.688880000000     0.0608064  
C444     C      0.528500000000     0.018760000000     0.748050000000    -0.0307133  
C445     C      0.546200000000     0.035670000000     0.615140000000     0.0610212  
C446     C      0.560900000000     0.054270000000     0.555240000000    -0.0346255  
C447     C      0.525030000000     0.038040000000     0.624900000000    -0.0564658  
C448     C      0.570060000000     0.049100000000     0.519120000000     0.00941711 
C449     C      0.536000000000     0.003030000000     0.524680000000    -0.00161803 
C450     C      0.557830000000     0.038670000000     0.678930000000    -0.0563006  
C451     C      0.510340000000     0.033050000000     0.251190000000    -0.0315088  
C452     C      0.555230000000     0.079750000000     0.066510000000    -0.0308814  
C453     C      0.555060000000     0.036030000000     0.034750000000    -0.00485891 
C454     C      0.568870000000     0.082230000000     0.030470000000    -0.00528588 
C455     C      0.560580000000     0.059740000000     0.154860000000    -0.0540171  
C456     C      0.513460000000     0.056280000000     0.167300000000    -0.0541598  
C457     C      0.545570000000     0.058710000000     0.125190000000     0.0608313  
C458     C      0.541620000000     0.034980000000     0.070520000000    -0.031227   
C459     C      0.528730000000     0.057940000000     0.196950000000     0.0609677  
C460     C      0.537710000000     0.078840000000     0.256040000000    -0.0444342  
C461     C      0.552180000000     0.059080000000     0.190460000000    -0.0561777  
C462     C      0.524990000000     0.078910000000     0.292070000000     0.0410995  
C463     C      0.497190000000     0.032380000000     0.287090000000    -0.00592239 
C464     C      0.521590000000     0.056380000000     0.131720000000    -0.0562434  
C465     C      0.644120000000     0.069050000000     0.926090000000    -0.031677   
C466     C      0.748660000000     0.154080000000     0.046140000000    -0.0305171  
C467     C      0.754840000000     0.117700000000     0.089770000000    -0.00519016 
C468     C      0.762710000000     0.162130000000     0.082470000000    -0.00531012 
C469     C      0.687030000000     0.111020000000     0.020980000000    -0.0539239  
C470     C      0.705610000000     0.112620000000     0.950910000000    -0.0546771  
C471     C      0.712930000000     0.119430000000     0.015970000000     0.0610934  
C472     C      0.741020000000     0.111270000000     0.053180000000    -0.0307069  
C473     C      0.679690000000     0.104160000000     0.955950000000     0.0616809  
C474     C      0.651850000000     0.112500000000     0.918310000000    -0.0449002  
C475     C      0.670480000000     0.103440000000     0.991300000000    -0.0565394  
C476     C      0.636160000000     0.104320000000     0.883190000000     0.0423067  
C477     C      0.627970000000     0.060950000000     0.891390000000    -0.0055443  
C478     C      0.722180000000     0.120230000000     0.980610000000    -0.056228   
C479     C      0.210860000000     0.877350000000     0.625230000000    -0.0319926  
C480     C      0.210510000000     0.822140000000     0.447150000000    -0.0309113  
C481     C      0.161730000000     0.812850000000     0.418720000000    -0.00476785 
C482     C      0.198700000000     0.805240000000     0.413850000000    -0.00513404 
C483     C      0.190130000000     0.821480000000     0.537210000000    -0.0539421  
C484     C      0.228290000000     0.872180000000     0.539150000000    -0.054281   
C485     C      0.200200000000     0.834480000000     0.504560000000     0.0610521  
C486     C      0.174730000000     0.829850000000     0.451500000000    -0.0308476  
C487     C      0.218590000000     0.859040000000     0.571780000000     0.0614503  
C488     C      0.239280000000     0.859510000000     0.628670000000    -0.044546   
C489     C      0.199050000000     0.833650000000     0.570590000000    -0.0563985  
C490     C      0.252850000000     0.876260000000     0.661460000000     0.0422602  
C491     C      0.223850000000     0.893950000000     0.658570000000    -0.00538151 
C492     C      0.219070000000     0.860150000000     0.505780000000    -0.056217   
C493     C      0.172900000000     0.852500000000     0.936610000000    -0.0308602  
C494     C      0.197700000000     0.829200000000     0.124010000000    -0.0307074  
C495     C      0.169930000000     0.846040000000     0.170010000000    -0.00544742 
C496     C      0.206430000000     0.837090000000     0.163240000000    -0.00489419 
C497     C      0.198350000000     0.860750000000     0.048540000000    -0.0543399  
C498     C      0.160440000000     0.815910000000     0.017580000000    -0.0538972  
C499     C      0.182110000000     0.840720000000     0.071150000000     0.0612706  
C500     C      0.163050000000     0.837970000000     0.130390000000    -0.0304298  
C501     C      0.176650000000     0.835990000000     0.994920000000     0.0605085  
C502     C      0.195350000000     0.829130000000     0.941790000000    -0.0434211  
C503     C      0.195880000000     0.858410000000     0.010810000000    -0.0560913  
C504     C      0.191360000000     0.821890000000     0.901310000000     0.0389665  
C505     C      0.167060000000     0.845630000000     0.896520000000    -0.0063375  
C506     C      0.163220000000     0.818090000000     0.055360000000    -0.056591   
C507     C      0.433190000000     0.024210000000     0.911360000000    -0.0317831  
C508     C      0.317880000000     0.912660000000     0.842400000000    -0.030597   
C509     C      0.281850000000     0.930640000000     0.832180000000    -0.00469312 
C510     C      0.289570000000     0.893390000000     0.839000000000    -0.00526299 
C511     C      0.352000000000     0.961750000000     0.905480000000    -0.0540619  
C512     C      0.392630000000     0.975970000000     0.857460000000    -0.0536653  
C513     C      0.347130000000     0.953120000000     0.869540000000     0.0611535  
C514     C      0.310670000000     0.947940000000     0.835360000000    -0.0307862  
C515     C      0.397530000000     0.983590000000     0.893860000000     0.0611931  
C516     C      0.428030000000     0.985390000000     0.938360000000    -0.0442025  
C517     C      0.376950000000     0.977090000000     0.917560000000    -0.0564766  
C518     C      0.456630000000     0.995140000000     0.941350000000     0.0445904  
C519     C      0.459360000000     0.037560000000     0.930720000000    -0.00359688 
C520     C      0.367630000000     0.961100000000     0.845160000000    -0.056284   
C521     C      0.845280000000     0.696610000000     0.806830000000    -0.0308746  
C522     C      0.852270000000     0.694090000000     0.001440000000    -0.0309094  
C523     C      0.803980000000     0.672110000000     0.039970000000    -0.00525679 
C524     C      0.850940000000     0.702990000000     0.039730000000    -0.00474311 
C525     C      0.842850000000     0.704570000000     0.921990000000    -0.0539918  
C526     C      0.824880000000     0.657250000000     0.890350000000    -0.0533435  
C527     C      0.830280000000     0.682960000000     0.943820000000     0.0608507  
C528     C      0.806520000000     0.664840000000     0.000980000000    -0.0311836  
C529     C      0.837760000000     0.678880000000     0.868620000000     0.0601329  
C530     C      0.862910000000     0.670890000000     0.825430000000    -0.0438083  
C531     C      0.847190000000     0.702720000000     0.885160000000    -0.0552712  
C532     C      0.862090000000     0.660870000000     0.786880000000     0.0418917  
C533     C      0.843490000000     0.689010000000     0.767000000000    -0.00488821 
C534     C      0.821680000000     0.659160000000     0.927600000000    -0.0556588  
C535     C      0.855790000000     0.617520000000     0.500050000000    -0.0310237  
C536     C      0.864920000000     0.651850000000     0.310090000000    -0.0308298  
C537     C      0.826610000000     0.611630000000     0.265130000000    -0.00560085 
C538     C      0.869960000000     0.650590000000     0.269730000000    -0.00465021 
C539     C      0.864260000000     0.621440000000     0.383010000000    -0.0542345  
C540     C      0.833060000000     0.635420000000     0.420160000000    -0.0537346  
C541     C      0.847300000000     0.626200000000     0.363350000000     0.0611312  
C542     C      0.823400000000     0.613810000000     0.306060000000    -0.0307498  
C543     C      0.850200000000     0.630900000000     0.439810000000     0.060552   
C544     C      0.873980000000     0.661460000000     0.485940000000    -0.0436921  
C545     C      0.866080000000     0.624140000000     0.420760000000    -0.0561108  
C546     C      0.872260000000     0.668930000000     0.525170000000     0.0421426  
C547     C      0.852870000000     0.621280000000     0.540470000000    -0.00403205 
C548     C      0.831840000000     0.633520000000     0.382290000000    -0.056443   
C549     C      0.615230000000     0.531380000000     0.597810000000    -0.0309621  
C550     C      0.748640000000     0.628910000000     0.626110000000    -0.030475   
C551     C      0.770660000000     0.600590000000     0.658540000000    -0.00504478 
C552     C      0.773570000000     0.642940000000     0.647280000000    -0.00525995 
C553     C      0.687190000000     0.582710000000     0.650750000000    -0.0544268  
C554     C      0.677570000000     0.575350000000     0.576130000000    -0.0536289  
C555     C      0.707560000000     0.590700000000     0.626540000000     0.0614806  
C556     C      0.745870000000     0.588430000000     0.636660000000    -0.0306468  
C557     C      0.657210000000     0.567900000000     0.600300000000     0.0603933  
C558     C      0.620290000000     0.572870000000     0.595530000000    -0.0435296  
C559     C      0.662210000000     0.571290000000     0.637910000000    -0.0560629  
C560     C      0.594680000000     0.563680000000     0.575980000000     0.0411052  
C561     C      0.590790000000     0.519450000000     0.575500000000    -0.00386443 
C562     C      0.702570000000     0.586520000000     0.589040000000    -0.0567195  
C563     C      0.107720000000     0.771400000000     0.714070000000    -0.0308913  
C564     C      0.975590000000     0.735170000000     0.671450000000    -0.0305945  
C565     C      0.948270000000     0.680390000000     0.664790000000    -0.00481802 
C566     C      0.950780000000     0.722100000000     0.649800000000    -0.0048948  
C567     C      0.034630000000     0.742260000000     0.659370000000    -0.0543297  
C568     C      0.044090000000     0.755150000000     0.732880000000    -0.0535077  
C569     C      0.014170000000     0.734090000000     0.683480000000     0.0612729  
C570     C      0.973310000000     0.695330000000     0.685660000000    -0.0307878  
C571     C      0.064570000000     0.763650000000     0.708670000000     0.0604643  
C572     C      0.099950000000     0.805990000000     0.707180000000    -0.0435593  
C573     C      0.059630000000     0.756970000000     0.671690000000    -0.0560962  
C574     C      0.124690000000     0.824780000000     0.726600000000     0.0418656  
C575     C      0.132430000000     0.786910000000     0.735290000000    -0.0041759  
C576     C      0.019070000000     0.740530000000     0.720500000000    -0.05659    
H1       H      0.820970000000     0.041530000000     0.717950000000     0.0410874  
H2       H      0.801970000000     0.972200000000     0.813760000000     0.0348014  
H3       H      0.758130000000     0.934710000000     0.730680000000     0.0429253  
H4       H      0.780450000000     0.091100000000     0.732530000000     0.0478746  
H5       H      0.790220000000     0.929360000000     0.793420000000     0.0391437  
H6       H      0.770420000000     0.035300000000     0.676280000000     0.0352713  
H7       H      0.802040000000     0.080970000000     0.770660000000     0.035715   
H8       H      0.780370000000     0.073180000000     0.638600000000     0.0291516  
H9       H      0.815880000000     0.000600000000     0.736100000000     0.0439967  
H10      H      0.781040000000     0.928940000000     0.839830000000     0.0376741  
H11      H      0.750430000000     0.022670000000     0.771420000000     0.0439394  
H12      H      0.769810000000     0.962120000000     0.827250000000     0.0429361  
H13      H      0.820550000000     0.117360000000     0.726860000000     0.0421272  
H14      H      0.721570000000     0.905080000000     0.762110000000     0.0287202  
H15      H      0.803970000000     0.058190000000     0.675660000000     0.0402569  
H16      H      0.823450000000     0.083950000000     0.734850000000     0.0404849  
H17      H      0.746220000000     0.982490000000     0.791440000000     0.0460404  
H18      H      0.740810000000     0.950260000000     0.740310000000     0.0396325  
H19      H      0.759310000000     0.068690000000     0.675970000000     0.0369363  
H20      H      0.694390000000     0.908080000000     0.816500000000     0.0396276  
H21      H      0.885900000000     0.324700000000     0.619390000000     0.0404957  
H22      H      0.946410000000     0.377410000000     0.521250000000     0.0343159  
H23      H      0.881840000000     0.386690000000     0.518670000000     0.0391654  
H24      H      0.873970000000     0.240980000000     0.570870000000     0.0383821  
H25      H      0.963050000000     0.422080000000     0.523850000000     0.0365738  
H26      H      0.829010000000     0.277650000000     0.593210000000     0.0344712  
H27      H      0.901550000000     0.285140000000     0.576850000000     0.0342685  
H28      H      0.816910000000     0.238620000000     0.632410000000     0.0395284  
H29      H      0.907010000000     0.367930000000     0.595130000000     0.0440952  
H30      H      0.969550000000     0.414000000000     0.479980000000     0.0412586  
H31      H      0.866610000000     0.295230000000     0.510520000000     0.0445259  
H32      H      0.930180000000     0.374430000000     0.478890000000     0.0376361  
H33      H      0.888010000000     0.245930000000     0.615060000000     0.0395966  
H34      H      0.915430000000     0.429200000000     0.516410000000     0.0295785  
H35      H      0.849670000000     0.282240000000     0.631170000000     0.035998   
H36      H      0.890550000000     0.286150000000     0.621940000000     0.0363022  
H37      H      0.887670000000     0.338170000000     0.486250000000     0.0403149  
H38      H      0.892010000000     0.377820000000     0.478180000000     0.0419107  
H39      H      0.818510000000     0.235060000000     0.584420000000     0.0394187  
H40      H      0.892010000000     0.441420000000     0.467860000000     0.0339953  
H41      H      0.111920000000     0.686930000000     0.356210000000     0.0410895  
H42      H      0.026790000000     0.606400000000     0.353570000000     0.0343592  
H43      H      0.086470000000     0.590240000000     0.340980000000     0.0389864  
H44      H      0.105760000000     0.732590000000     0.244530000000     0.0360535  
H45      H      0.019020000000     0.578010000000     0.401870000000     0.0381219  
H46      H      0.147040000000     0.698080000000     0.278620000000     0.0344758  
H47      H      0.080330000000     0.703360000000     0.292280000000     0.0343852  
H48      H      0.172980000000     0.744540000000     0.269210000000     0.0413318  
H49      H      0.089150000000     0.644950000000     0.384250000000     0.0446727  
H50      H      0.996680000000     0.560320000000     0.366980000000     0.0394978  
H51      H      0.083770000000     0.653730000000     0.250950000000     0.0440547  
H52      H      0.025110000000     0.584590000000     0.319360000000     0.0362806  
H53      H      0.105390000000     0.750070000000     0.283540000000     0.0409799  
H54      H      0.064380000000     0.560740000000     0.386260000000     0.0306944  
H55      H      0.145500000000     0.715800000000     0.316780000000     0.0387687  
H56      H      0.105690000000     0.718850000000     0.324990000000     0.0386642  
H57      H      0.060810000000     0.611830000000     0.278940000000     0.0399556  
H58      H      0.060210000000     0.577910000000     0.309870000000     0.0406233  
H59      H      0.148510000000     0.729000000000     0.235640000000     0.0358477  
H60      H      0.063960000000     0.522900000000     0.353590000000     0.0344715  
H61      H      0.660610000000     0.719000000000     0.969340000000     0.0407383  
H62      H      0.581300000000     0.633650000000     0.977990000000     0.034848   
H63      H      0.638780000000     0.619380000000     0.000200000000     0.0439369  
H64      H      0.658470000000     0.747440000000     0.838110000000     0.0361355  
H65      H      0.575280000000     0.604330000000     0.025740000000     0.0383083  
H66      H      0.704420000000     0.731120000000     0.908000000000     0.0348274  
H67      H      0.631540000000     0.722100000000     0.887310000000     0.03434    
H68      H      0.724890000000     0.776850000000     0.889160000000     0.040854   
H69      H      0.638570000000     0.679420000000     0.003900000000     0.0443974  
H70      H      0.553840000000     0.586890000000     0.989750000000     0.0389381  
H71      H      0.645230000000     0.676690000000     0.869780000000     0.0441358  
H72      H      0.583060000000     0.614070000000     0.943250000000     0.0401696  
H73      H      0.651450000000     0.766870000000     0.866850000000     0.0408463  
H74      H      0.617910000000     0.577500000000     0.981940000000     0.0340162  
H75      H      0.693950000000     0.749450000000     0.933500000000     0.0373555  
H76      H      0.651810000000     0.744370000000     0.921210000000     0.0380428  
H77      H      0.622500000000     0.637140000000     0.904310000000     0.0417176  
H78      H      0.640890000000     0.621340000000     0.952250000000     0.0371098  
H79      H      0.709410000000     0.754630000000     0.853120000000     0.0371287  
H80      H      0.616340000000     0.589890000000     0.902490000000     0.0271717  
H81      H      0.289820000000     0.010880000000     0.207870000000     0.0406875  
H82      H      0.287530000000     0.942030000000     0.294160000000     0.0345691  
H83      H      0.221430000000     0.948600000000     0.297960000000     0.0391124  
H84      H      0.359720000000     0.093650000000     0.261560000000     0.0378462  
H85      H      0.259010000000     0.900530000000     0.280640000000     0.0414935  
H86      H      0.277980000000     0.051770000000     0.253040000000     0.0344418  
H87      H      0.347160000000     0.050500000000     0.248320000000     0.03446    
H88      H      0.298510000000     0.093270000000     0.220140000000     0.0408111  
H89      H      0.264750000000     0.965940000000     0.223550000000     0.0453539  
H90      H      0.260030000000     0.898800000000     0.328890000000     0.0358111  
H91      H      0.303710000000     0.029640000000     0.321620000000     0.0442911  
H92      H      0.272780000000     0.941640000000     0.336680000000     0.0349281  
H93      H      0.367820000000     0.092170000000     0.215120000000     0.040036   
H94      H      0.198660000000     0.906110000000     0.292280000000     0.0326498  
H95      H      0.291460000000     0.051300000000     0.209580000000     0.0371298  
H96      H      0.331260000000     0.050460000000     0.206880000000     0.0371327  
H97      H      0.279000000000     0.984720000000     0.337290000000     0.0400555  
H98      H      0.237520000000     0.948330000000     0.338580000000     0.0400666  
H99      H      0.310490000000     0.094440000000     0.265080000000     0.0372937  
H100     H      0.171780000000     0.888810000000     0.351110000000     0.0369269  
H101     H      0.475930000000     0.374270000000     0.143860000000     0.0407526  
H102     H      0.392010000000     0.285180000000     0.132140000000     0.03443    
H103     H      0.461570000000     0.285850000000     0.119090000000     0.0390555  
H104     H      0.468920000000     0.424220000000     0.038250000000     0.0375941  
H105     H      0.388240000000     0.254640000000     0.175190000000     0.0384194  
H106     H      0.511050000000     0.386640000000     0.065790000000     0.0345619  
H107     H      0.447060000000     0.395160000000     0.086830000000     0.0344097  
H108     H      0.538210000000     0.433530000000     0.057420000000     0.0409016  
H109     H      0.454730000000     0.330910000000     0.167570000000     0.044533   
H110     H      0.369210000000     0.237550000000     0.137060000000     0.0403308  
H111     H      0.449300000000     0.345700000000     0.036090000000     0.0444286  
H112     H      0.396520000000     0.268940000000     0.094610000000     0.0362396  
H113     H      0.474500000000     0.442330000000     0.078940000000     0.0406306  
H114     H      0.441990000000     0.252840000000     0.161170000000     0.0308882  
H115     H      0.511170000000     0.404950000000     0.104230000000     0.0373425  
H116     H      0.474380000000     0.409770000000     0.116420000000     0.0370717  
H117     H      0.428300000000     0.302470000000     0.059570000000     0.0400889  
H118     H      0.436670000000     0.271170000000     0.085890000000     0.0414347  
H119     H      0.514590000000     0.417820000000     0.022910000000     0.0380445  
H120     H      0.454660000000     0.223760000000     0.126170000000     0.0340201  
H121     H      0.732750000000     0.820610000000     0.538850000000     0.0405763  
H122     H      0.768780000000     0.848170000000     0.671020000000     0.0346541  
H123     H      0.688660000000     0.800820000000     0.663520000000     0.0407745  
H124     H      0.740180000000     0.897520000000     0.472570000000     0.0378288  
H125     H      0.754930000000     0.814160000000     0.715710000000     0.0359277  
H126     H      0.682980000000     0.828490000000     0.519550000000     0.0346226  
H127     H      0.761250000000     0.883660000000     0.514720000000     0.0344129  
H128     H      0.679430000000     0.831010000000     0.451970000000     0.0410137  
H129     H      0.735520000000     0.806660000000     0.600430000000     0.0439935  
H130     H      0.766880000000     0.843940000000     0.738720000000     0.0402017  
H131     H      0.719070000000     0.877810000000     0.583960000000     0.0443912  
H132     H      0.749220000000     0.859360000000     0.691530000000     0.0390723  
H133     H      0.758060000000     0.886650000000     0.447020000000     0.0403349  
H134     H      0.707620000000     0.785760000000     0.708690000000     0.0264355  
H135     H      0.704520000000     0.822000000000     0.494210000000     0.0375184  
H136     H      0.749950000000     0.854020000000     0.491440000000     0.0374141  
H137     H      0.722420000000     0.864240000000     0.645530000000     0.0412943  
H138     H      0.700360000000     0.830240000000     0.687860000000     0.0470571  
H139     H      0.685970000000     0.859170000000     0.475820000000     0.0369661  
H140     H      0.673080000000     0.771390000000     0.765710000000     0.0361145  
H141     H      0.704110000000     0.840010000000     0.124040000000     0.0407654  
H142     H      0.668800000000     0.856510000000     0.995290000000     0.0347125  
H143     H      0.747310000000     0.885360000000     0.013680000000     0.038824   
H144     H      0.670860000000     0.874830000000     0.218580000000     0.0368344  
H145     H      0.676160000000     0.840120000000     0.943090000000     0.0389997  
H146     H      0.740620000000     0.903160000000     0.160390000000     0.0343064  
H147     H      0.662180000000     0.848410000000     0.165690000000     0.0345541  
H148     H      0.744600000000     0.900430000000     0.227560000000     0.0409095  
H149     H      0.706060000000     0.835700000000     0.058090000000     0.0448015  
H150     H      0.681550000000     0.869760000000     0.926710000000     0.0382174  
H151     H      0.699640000000     0.907570000000     0.108300000000     0.0441027  
H152     H      0.691760000000     0.888560000000     0.984060000000     0.0345562  
H153     H      0.665710000000     0.844640000000     0.233150000000     0.0415034  
H154     H      0.744290000000     0.864200000000     0.960330000000     0.0331409  
H155     H      0.731160000000     0.871680000000     0.175800000000     0.0382875  
H156     H      0.685450000000     0.839730000000     0.178950000000     0.037698   
H157     H      0.702940000000     0.904010000000     0.042490000000     0.0401144  
H158     H      0.735410000000     0.904560000000     0.994870000000     0.0415194  
H159     H      0.724100000000     0.912440000000     0.214420000000     0.0378825  
H160     H      0.781540000000     0.900330000000     0.924110000000     0.0363983  
H161     H      0.786610000000     0.733480000000     0.299580000000     0.0403721  
H162     H      0.791800000000     0.821490000000     0.305330000000     0.0342134  
H163     H      0.717360000000     0.759580000000     0.292900000000     0.0393012  
H164     H      0.833200000000     0.738670000000     0.180780000000     0.0386303  
H165     H      0.765990000000     0.825460000000     0.352040000000     0.0368484  
H166     H      0.756670000000     0.700240000000     0.225310000000     0.0345585  
H167     H      0.832320000000     0.760910000000     0.233720000000     0.0342719  
H168     H      0.773460000000     0.671140000000     0.208430000000     0.0403546  
H169     H      0.769990000000     0.757680000000     0.331200000000     0.0440134  
H170     H      0.774740000000     0.849820000000     0.318850000000     0.0418349  
H171     H      0.780500000000     0.764360000000     0.197230000000     0.0446326  
H172     H      0.771670000000     0.822050000000     0.269620000000     0.037783   
H173     H      0.848630000000     0.731430000000     0.216500000000     0.0397383  
H174     H      0.712820000000     0.783560000000     0.340600000000     0.028698   
H175     H      0.778280000000     0.699020000000     0.257840000000     0.0363703  
H176     H      0.821460000000     0.733660000000     0.262620000000     0.0363958  
H177     H      0.764240000000     0.788710000000     0.228620000000     0.0402808  
H178     H      0.729140000000     0.785360000000     0.261110000000     0.0423655  
H179     H      0.777650000000     0.694050000000     0.174750000000     0.0383463  
H180     H      0.668410000000     0.774390000000     0.316240000000     0.0332778  
H181     H      0.625020000000     0.988320000000     0.412740000000     0.0408665  
H182     H      0.629690000000     0.913920000000     0.369190000000     0.0342273  
H183     H      0.702150000000     0.978620000000     0.355480000000     0.0393932  
H184     H      0.563770000000     0.990950000000     0.319060000000     0.0355932  
H185     H      0.660060000000     0.905090000000     0.398530000000     0.0370942  
H186     H      0.638550000000     0.035870000000     0.355860000000     0.0345232  
H187     H      0.574900000000     0.961970000000     0.347820000000     0.0342892  
H188     H      0.609730000000     0.053250000000     0.369080000000     0.0402964  
H189     H      0.649980000000     0.966950000000     0.419190000000     0.0442975  
H190     H      0.647500000000     0.886090000000     0.358630000000     0.0419395  
H191     H      0.627010000000     0.982460000000     0.296200000000     0.0440593  
H192     H      0.645710000000     0.919700000000     0.325990000000     0.038124   
H193     H      0.545340000000     0.978290000000     0.359710000000     0.0411394  
H194     H      0.712010000000     0.949470000000     0.384100000000     0.0288725  
H195     H      0.618980000000     0.022080000000     0.395560000000     0.0377877  
H196     H      0.581210000000     0.978320000000     0.390710000000     0.038897   
H197     H      0.651190000000     0.960440000000     0.302580000000     0.0403845  
H198     H      0.686740000000     0.958080000000     0.317480000000     0.042066   
H199     H      0.604890000000     0.039090000000     0.324920000000     0.0359428  
H200     H      0.752430000000     0.963510000000     0.343840000000     0.03361    
H201     H      0.038150000000     0.530310000000     0.717880000000     0.0404406  
H202     H      0.027420000000     0.501590000000     0.599770000000     0.0337625  
H203     H      0.999100000000     0.552450000000     0.590460000000     0.0406465  
H204     H      0.952750000000     0.485640000000     0.798650000000     0.0382678  
H205     H      0.047620000000     0.529660000000     0.547860000000     0.0364185  
H206     H      0.018500000000     0.552620000000     0.764610000000     0.0346808  
H207     H      0.968130000000     0.474790000000     0.744650000000     0.033953   
H208     H      0.017140000000     0.543990000000     0.831540000000     0.0414182  
H209     H      0.047020000000     0.537080000000     0.653040000000     0.0431958  
H210     H      0.027760000000     0.497590000000     0.532960000000     0.0399225  
H211     H      0.958820000000     0.504520000000     0.697060000000     0.0438373  
H212     H      0.996090000000     0.490140000000     0.580850000000     0.0404251  
H213     H      0.965640000000     0.465830000000     0.811280000000     0.0401792  
H214     H      0.030370000000     0.560330000000     0.543060000000     0.026954   
H215     H      0.028040000000     0.529840000000     0.776600000000     0.0376724  
H216     H      0.998890000000     0.484850000000     0.764620000000     0.0392742  
H217     H      0.967260000000     0.508870000000     0.631950000000     0.0411683  
H218     H      0.979330000000     0.520410000000     0.574370000000     0.0458309  
H219     H      0.987420000000     0.538220000000     0.812860000000     0.0373459  
H220     H      0.008400000000     0.568730000000     0.483470000000     0.0357347  
H221     H      0.004880000000     0.478370000000     0.230760000000     0.0411989  
H222     H      0.962940000000     0.429040000000     0.095690000000     0.034455   
H223     H      0.997880000000     0.507230000000     0.118100000000     0.0387236  
H224     H      0.945430000000     0.418540000000     0.319120000000     0.0355004  
H225     H      0.994680000000     0.449440000000     0.049180000000     0.036146   
H226     H      0.939030000000     0.472970000000     0.259420000000     0.0340844  
H227     H      0.977080000000     0.430800000000     0.271090000000     0.034895   
H228     H      0.938080000000     0.477220000000     0.326750000000     0.0403964  
H229     H      0.014890000000     0.483850000000     0.166120000000     0.043576   
H230     H      0.963990000000     0.437660000000     0.028970000000     0.0408736  
H231     H      0.924800000000     0.435010000000     0.205480000000     0.0435887  
H232     H      0.947160000000     0.446400000000     0.083010000000     0.0377984  
H233     H      0.976670000000     0.434560000000     0.338800000000     0.0406808  
H234     H      0.018870000000     0.504900000000     0.064170000000     0.0299403  
H235     H      0.970570000000     0.488350000000     0.278860000000     0.0405401  
H236     H      0.993110000000     0.463170000000     0.286680000000     0.0405088  
H237     H      0.934650000000     0.442680000000     0.140970000000     0.0402756  
H238     H      0.966740000000     0.490820000000     0.097730000000     0.0440792  
H239     H      0.921280000000     0.444880000000     0.311700000000     0.0367762  
H240     H      0.020820000000     0.545150000000     0.034950000000     0.0347819  
H241     H      0.896920000000     0.566870000000     0.090970000000     0.0405849  
H242     H      0.887910000000     0.506930000000     0.980360000000     0.0346371  
H243     H      0.955050000000     0.577980000000     0.984590000000     0.0392223  
H244     H      0.832470000000     0.596310000000     0.065280000000     0.0382855  
H245     H      0.916830000000     0.492550000000     0.977610000000     0.0406368  
H246     H      0.913910000000     0.624670000000     0.062580000000     0.0344129  
H247     H      0.839620000000     0.561190000000     0.064630000000     0.0342449  
H248     H      0.900410000000     0.646330000000     0.108740000000     0.0402619  
H249     H      0.916440000000     0.545100000000     0.060120000000     0.0451327  
H250     H      0.910960000000     0.494740000000     0.930720000000     0.0377453  
H251     H      0.877580000000     0.585420000000     0.987090000000     0.0442185  
H252     H      0.900070000000     0.526350000000     0.940520000000     0.0352292  
H253     H      0.826520000000     0.583560000000     0.110370000000     0.0395083  
H254     H      0.975070000000     0.554730000000     0.978530000000     0.0332503  
H255     H      0.901030000000     0.607440000000     0.104230000000     0.0365759  
H256     H      0.858630000000     0.571230000000     0.105390000000     0.0367242  
H257     H      0.896500000000     0.563180000000     0.956280000000     0.0400979  
H258     H      0.936810000000     0.566610000000     0.943610000000     0.0409151  
H259     H      0.887200000000     0.643000000000     0.064190000000     0.037296   
H260     H      0.004160000000     0.578210000000     0.923590000000     0.0353037  
H261     H      0.366860000000     0.175700000000     0.969350000000     0.0409867  
H262     H      0.400610000000     0.154630000000     0.857630000000     0.0347671  
H263     H      0.325660000000     0.137860000000     0.836690000000     0.0421501  
H264     H      0.371690000000     0.117170000000     0.065930000000     0.0367058  
H265     H      0.400500000000     0.176820000000     0.805230000000     0.0431615  
H266     H      0.318030000000     0.130200000000     0.012010000000     0.0345515  
H267     H      0.392330000000     0.139790000000     0.010650000000     0.0344326  
H268     H      0.321900000000     0.139470000000     0.078800000000     0.041257   
H269     H      0.369270000000     0.180110000000     0.902980000000     0.0452753  
H270     H      0.402950000000     0.150790000000     0.787900000000     0.0348235  
H271     H      0.345860000000     0.097460000000     0.958830000000     0.0440001  
H272     H      0.379600000000     0.124050000000     0.838510000000     0.0395293  
H273     H      0.396740000000     0.148360000000     0.077240000000     0.0413006  
H274     H      0.326020000000     0.127080000000     0.777900000000     0.0324184  
H275     H      0.344680000000     0.160600000000     0.023660000000     0.038106   
H276     H      0.388370000000     0.166190000000     0.022890000000     0.0391629  
H277     H      0.349420000000     0.102230000000     0.892430000000     0.0416627  
H278     H      0.326870000000     0.109960000000     0.845790000000     0.0393121  
H279     H      0.322600000000     0.111320000000     0.067300000000     0.0362981  
H280     H      0.337950000000     0.093940000000     0.745390000000     0.0395578  
H281     H      0.396380000000     0.237850000000     0.393290000000     0.0403895  
H282     H      0.346010000000     0.197210000000     0.512670000000     0.0347329  
H283     H      0.425340000000     0.224900000000     0.520010000000     0.0391829  
H284     H      0.343700000000     0.165340000000     0.308750000000     0.0383667  
H285     H      0.361900000000     0.225600000000     0.564210000000     0.0357087  
H286     H      0.420180000000     0.200510000000     0.357750000000     0.0341982  
H287     H      0.345970000000     0.190710000000     0.358900000000     0.0345325  
H288     H      0.419970000000     0.202630000000     0.288620000000     0.0389069  
H289     H      0.397720000000     0.246110000000     0.458790000000     0.0441813  
H290     H      0.341720000000     0.194050000000     0.579850000000     0.0412466  
H291     H      0.374060000000     0.160320000000     0.415700000000     0.0444281  
H292     H      0.357160000000     0.177230000000     0.531680000000     0.0392351  
H293     H      0.347480000000     0.193920000000     0.289710000000     0.0397606  
H294     H      0.413220000000     0.243160000000     0.568750000000     0.0298189  
H295     H      0.414170000000     0.224320000000     0.339240000000     0.036521   
H296     H      0.372190000000     0.218840000000     0.339980000000     0.0358969  
H297     H      0.376380000000     0.168840000000     0.481200000000     0.0409648  
H298     H      0.403530000000     0.193280000000     0.535030000000     0.0416437  
H299     H      0.400090000000     0.172270000000     0.308460000000     0.0394557  
H300     H      0.441710000000     0.240180000000     0.625530000000     0.039018   
H301     H      0.427910000000     0.089580000000     0.469700000000     0.0404009  
H302     H      0.378580000000     0.086700000000     0.592580000000     0.0347796  
H303     H      0.438150000000     0.157510000000     0.556820000000     0.0372263  
H304     H      0.466580000000     0.034410000000     0.494670000000     0.0373165  
H305     H      0.363980000000     0.117340000000     0.595230000000     0.0393379  
H306     H      0.492240000000     0.115410000000     0.493110000000     0.0337943  
H307     H      0.430690000000     0.040420000000     0.497230000000     0.0342584  
H308     H      0.514440000000     0.101940000000     0.447940000000     0.0385204  
H309     H      0.405080000000     0.107970000000     0.500810000000     0.0435426  
H310     H      0.366630000000     0.107620000000     0.640480000000     0.0368501  
H311     H      0.463010000000     0.088350000000     0.570990000000     0.043995   
H312     H      0.404190000000     0.105040000000     0.623890000000     0.0384588  
H313     H      0.453290000000     0.027970000000     0.449910000000     0.0396299  
H314     H      0.402170000000     0.162540000000     0.573680000000     0.0273381  
H315     H      0.473980000000     0.100390000000     0.452870000000     0.0365816  
H316     H      0.438790000000     0.057930000000     0.455280000000     0.0359712  
H317     H      0.440940000000     0.107340000000     0.601820000000     0.0406629  
H318     H      0.440260000000     0.147200000000     0.602000000000     0.0427044  
H319     H      0.512630000000     0.090640000000     0.493370000000     0.0367022  
H320     H      0.460900000000     0.196970000000     0.597550000000     0.0244944  
H321     H      0.104290000000     0.396270000000     0.942060000000     0.0407735  
H322     H      0.092050000000     0.472430000000     0.912420000000     0.0344593  
H323     H      0.026470000000     0.402070000000     0.891660000000     0.0390202  
H324     H      0.170730000000     0.407350000000     0.845910000000     0.0379114  
H325     H      0.060230000000     0.475170000000     0.946350000000     0.0387315  
H326     H      0.092510000000     0.356170000000     0.874600000000     0.0344455  
H327     H      0.156800000000     0.429180000000     0.885590000000     0.0343448  
H328     H      0.121190000000     0.337190000000     0.879780000000     0.0405572  
H329     H      0.076830000000     0.414380000000     0.954440000000     0.0445413  
H330     H      0.065540000000     0.493650000000     0.906280000000     0.0401621  
H331     H      0.106700000000     0.415120000000     0.828710000000     0.0442481  
H332     H      0.075060000000     0.466850000000     0.870160000000     0.0365515  
H333     H      0.185200000000     0.410170000000     0.889450000000     0.0407455  
H334     H      0.007430000000     0.420920000000     0.924660000000     0.0304005  
H335     H      0.111570000000     0.364520000000     0.915300000000     0.0368967  
H336     H      0.148520000000     0.406290000000     0.921450000000     0.0375509  
H337     H      0.079850000000     0.433700000000     0.841070000000     0.0400501  
H338     H      0.039300000000     0.426160000000     0.857400000000     0.0411625  
H339     H      0.124500000000     0.354330000000     0.838740000000     0.0375405  
H340     H      0.969940000000     0.406860000000     0.879000000000     0.0337149  
H341     H      0.298040000000     0.277730000000     0.866090000000     0.0404414  
H342     H      0.294140000000     0.219470000000     0.765160000000     0.0345369  
H343     H      0.368510000000     0.281900000000     0.775040000000     0.0391461  
H344     H      0.226090000000     0.288110000000     0.814670000000     0.0390158  
H345     H      0.321010000000     0.201380000000     0.771440000000     0.0374836  
H346     H      0.309090000000     0.335440000000     0.834390000000     0.0343397  
H347     H      0.244590000000     0.262630000000     0.824620000000     0.0344319  
H348     H      0.281540000000     0.348980000000     0.870360000000     0.0384594  
H349     H      0.321080000000     0.256640000000     0.844380000000     0.044297   
H350     H      0.310180000000     0.197620000000     0.725420000000     0.0417036  
H351     H      0.292310000000     0.298580000000     0.756060000000     0.0449222  
H352     H      0.310870000000     0.237230000000     0.725390000000     0.0376621  
H353     H      0.219030000000     0.278150000000     0.860930000000     0.0389788  
H354     H      0.376530000000     0.247620000000     0.774080000000     0.0303733  
H355     H      0.293370000000     0.316930000000     0.874030000000     0.0358387  
H356     H      0.257030000000     0.276050000000     0.868560000000     0.0355538  
H357     H      0.315720000000     0.278120000000     0.734430000000     0.0405409  
H358     H      0.352700000000     0.274050000000     0.731690000000     0.0421523  
H359     H      0.276880000000     0.345540000000     0.822320000000     0.0399676  
H360     H      0.416230000000     0.271630000000     0.732040000000     0.034123   
H361     H      0.470230000000     0.507670000000     0.762110000000     0.0401227  
H362     H      0.483420000000     0.470650000000     0.867800000000     0.0340044  
H363     H      0.554280000000     0.537680000000     0.853170000000     0.0384618  
H364     H      0.495270000000     0.468720000000     0.647930000000     0.0425904  
H365     H      0.492880000000     0.494130000000     0.924100000000     0.0419913  
H366     H      0.504020000000     0.538490000000     0.705590000000     0.0349557  
H367     H      0.479870000000     0.460620000000     0.706820000000     0.0339989  
H368     H      0.480640000000     0.528450000000     0.640910000000     0.0364753  
H369     H      0.480690000000     0.510970000000     0.826820000000     0.0438964  
H370     H      0.495690000000     0.466550000000     0.931440000000     0.0317592  
H371     H      0.531590000000     0.493350000000     0.738540000000     0.0449108  
H372     H      0.512590000000     0.469530000000     0.869550000000     0.0390553  
H373     H      0.462640000000     0.459210000000     0.640690000000     0.0351996  
H374     H      0.541340000000     0.538760000000     0.914770000000     0.0327935  
H375     H      0.471020000000     0.514920000000     0.700780000000     0.0332081  
H376     H      0.457850000000     0.471830000000     0.699930000000     0.03534    
H377     H      0.540580000000     0.494440000000     0.803460000000     0.0405191  
H378     H      0.553450000000     0.508070000000     0.860760000000     0.0404453  
H379     H      0.513210000000     0.537150000000     0.645610000000     0.0426452  
H380     H      0.594440000000     0.533070000000     0.898280000000     0.027128   
H381     H      0.518600000000     0.490300000000     0.311980000000     0.0405363  
H382     H      0.550560000000     0.549790000000     0.210410000000     0.0346328  
H383     H      0.576770000000     0.498770000000     0.191250000000     0.0420721  
H384     H      0.563220000000     0.552150000000     0.418740000000     0.0377399  
H385     H      0.534930000000     0.530550000000     0.153600000000     0.0433109  
H386     H      0.555940000000     0.485970000000     0.369490000000     0.0345067  
H387     H      0.548400000000     0.550910000000     0.357400000000     0.0343013  
H388     H      0.537350000000     0.479120000000     0.432290000000     0.0411294  
H389     H      0.523340000000     0.491710000000     0.245800000000     0.0450474  
H390     H      0.561010000000     0.561050000000     0.142590000000     0.0342445  
H391     H      0.596760000000     0.549490000000     0.322650000000     0.044283   
H392     H      0.583500000000     0.563030000000     0.197820000000     0.0396583  
H393     H      0.530670000000     0.545000000000     0.420230000000     0.0404303  
H394     H      0.591900000000     0.513980000000     0.135070000000     0.032104   
H395     H      0.524700000000     0.482750000000     0.371350000000     0.0370613  
H396     H      0.520390000000     0.520530000000     0.364290000000     0.0380377  
H397     H      0.601000000000     0.551860000000     0.256230000000     0.0416005  
H398     H      0.601560000000     0.528520000000     0.206400000000     0.0392226  
H399     H      0.567740000000     0.507140000000     0.427410000000     0.0370624  
H400     H      0.625280000000     0.561770000000     0.110380000000     0.0408503  
H401     H      0.825450000000     0.172260000000     0.942830000000     0.0404262  
H402     H      0.875770000000     0.202130000000     0.813260000000     0.0345318  
H403     H      0.805240000000     0.134050000000     0.821350000000     0.0384573  
H404     H      0.902520000000     0.201920000000     0.019730000000     0.035264   
H405     H      0.848970000000     0.207410000000     0.770740000000     0.0354199  
H406     H      0.851290000000     0.131600000000     0.976260000000     0.0340448  
H407     H      0.881940000000     0.210910000000     0.969770000000     0.0349171  
H408     H      0.853050000000     0.133700000000     0.043840000000     0.0408078  
H409     H      0.814540000000     0.172400000000     0.878820000000     0.0438737  
H410     H      0.870770000000     0.201900000000     0.745150000000     0.0392343  
H411     H      0.887980000000     0.161630000000     0.911330000000     0.0437727  
H412     H      0.871310000000     0.173850000000     0.791140000000     0.0374605  
H413     H      0.883270000000     0.214090000000     0.037740000000     0.040669   
H414     H      0.798630000000     0.159160000000     0.777310000000     0.031393   
H415     H      0.832660000000     0.144670000000     0.994340000000     0.0390103  
H416     H      0.851100000000     0.192390000000     0.990690000000     0.0392366  
H417     H      0.875610000000     0.159450000000     0.847430000000     0.0403618  
H418     H      0.831280000000     0.135080000000     0.796300000000     0.0409218  
H419     H      0.883840000000     0.152280000000     0.023150000000     0.0363087  
H420     H      0.771960000000     0.123980000000     0.725260000000     0.0466737  
H421     H      0.829300000000     0.146130000000     0.342560000000     0.040888   
H422     H      0.847540000000     0.171210000000     0.461790000000     0.0336137  
H423     H      0.767160000000     0.126650000000     0.468870000000     0.0398192  
H424     H      0.796450000000     0.193220000000     0.257110000000     0.0368493  
H425     H      0.837100000000     0.140440000000     0.510430000000     0.0379165  
H426     H      0.779160000000     0.123280000000     0.300480000000     0.0350224  
H427     H      0.822730000000     0.202970000000     0.311580000000     0.0341913  
H428     H      0.785120000000     0.127030000000     0.233060000000     0.04018    
H429     H      0.830580000000     0.138130000000     0.407260000000     0.0431198  
H430     H      0.851380000000     0.171920000000     0.528610000000     0.0390633  
H431     H      0.778940000000     0.175370000000     0.364240000000     0.0438439  
H432     H      0.829720000000     0.184130000000     0.482930000000     0.0397643  
H433     H      0.829480000000     0.207700000000     0.244140000000     0.0391135  
H434     H      0.785550000000     0.112580000000     0.515460000000     0.0266101  
H435     H      0.812230000000     0.138940000000     0.286990000000     0.0397381  
H436     H      0.838310000000     0.186480000000     0.294510000000     0.0392662  
H437     H      0.782350000000     0.169890000000     0.429290000000     0.0406338  
H438     H      0.782990000000     0.158330000000     0.487240000000     0.044119   
H439     H      0.768850000000     0.142560000000     0.250370000000     0.0352299  
H440     H      0.752800000000     0.104040000000     0.569500000000     0.0356982  
H441     H      0.151680000000     0.357530000000     0.672000000000     0.0406554  
H442     H      0.165320000000     0.386360000000     0.536290000000     0.0345669  
H443     H      0.129440000000     0.307180000000     0.552030000000     0.0403808  
H444     H      0.234090000000     0.372480000000     0.732250000000     0.0375144  
H445     H      0.127610000000     0.365040000000     0.497310000000     0.0361529  
H446     H      0.166410000000     0.312180000000     0.688550000000     0.0347023  
H447     H      0.216920000000     0.391240000000     0.690980000000     0.0345631  
H448     H      0.171660000000     0.309360000000     0.755160000000     0.0413086  
H449     H      0.132350000000     0.354880000000     0.612360000000     0.0439483  
H450     H      0.155980000000     0.380530000000     0.470050000000     0.0409993  
H451     H      0.211590000000     0.350200000000     0.620680000000     0.0445904  
H452     H      0.179720000000     0.370070000000     0.514700000000     0.0372941  
H453     H      0.222340000000     0.389320000000     0.758490000000     0.0398229  
H454     H      0.106640000000     0.318490000000     0.508120000000     0.0264364  
H455     H      0.157790000000     0.331720000000     0.714770000000     0.0383697  
H456     H      0.187400000000     0.378280000000     0.715830000000     0.0377985  
H457     H      0.192790000000     0.348530000000     0.560910000000     0.0408368  
H458     H      0.157630000000     0.321510000000     0.523970000000     0.0449361  
H459     H      0.200520000000     0.319870000000     0.729980000000     0.0361381  
H460     H      0.086950000000     0.275870000000     0.474150000000     0.0314751  
H461     H      0.229210000000     0.333010000000     0.167440000000     0.0404667  
H462     H      0.180240000000     0.293250000000     0.038740000000     0.0345063  
H463     H      0.223760000000     0.372270000000     0.053400000000     0.03907    
H464     H      0.161200000000     0.295630000000     0.262910000000     0.0390881  
H465     H      0.208480000000     0.309050000000     0.987350000000     0.0364784  
H466     H      0.197480000000     0.366620000000     0.195750000000     0.0341094  
H467     H      0.183820000000     0.292500000000     0.213180000000     0.034576   
H468     H      0.200540000000     0.373440000000     0.263980000000     0.0379067  
H469     H      0.235960000000     0.334560000000     0.101450000000     0.0440771  
H470     H      0.176770000000     0.299090000000     0.972450000000     0.0416746  
H471     H      0.154100000000     0.322120000000     0.149670000000     0.0447416  
H472     H      0.166400000000     0.312650000000     0.028090000000     0.0376191  
H473     H      0.191210000000     0.303320000000     0.282210000000     0.0393234  
H474     H      0.238200000000     0.365750000000     0.996090000000     0.0297835  
H475     H      0.220570000000     0.361000000000     0.218330000000     0.0362974  
H476     H      0.213420000000     0.319520000000     0.226620000000     0.0348443  
H477     H      0.161250000000     0.325020000000     0.084150000000     0.040435   
H478     H      0.191130000000     0.358030000000     0.038790000000     0.0429353  
H479     H      0.169410000000     0.353330000000     0.245930000000     0.0407183  
H480     H      0.241310000000     0.406670000000     0.968330000000     0.0343239  
H481     H      0.993240000000     0.231550000000     0.203620000000     0.0406562  
H482     H      0.048230000000     0.306530000000     0.289860000000     0.0345491  
H483     H      0.043540000000     0.238100000000     0.322450000000     0.0391387  
H484     H      0.908760000000     0.230260000000     0.222270000000     0.0379194  
H485     H      0.091700000000     0.319050000000     0.294600000000     0.0388613  
H486     H      0.942030000000     0.182870000000     0.240540000000     0.0343821  
H487     H      0.954010000000     0.256050000000     0.219250000000     0.0343743  
H488     H      0.905830000000     0.165040000000     0.194080000000     0.0394821  
H489     H      0.035450000000     0.254120000000     0.232360000000     0.0447357  
H490     H      0.084440000000     0.329670000000     0.335610000000     0.0395764  
H491     H      0.958600000000     0.235110000000     0.304000000000     0.0442075  
H492     H      0.041450000000     0.296080000000     0.336310000000     0.0361572  
H493     H      0.917350000000     0.237730000000     0.175470000000     0.0405244  
H494     H      0.087570000000     0.263770000000     0.325480000000     0.0315521  
H495     H      0.950490000000     0.196100000000     0.195550000000     0.0363951  
H496     H      0.956780000000     0.237590000000     0.183260000000     0.0370292  
H497     H      0.000630000000     0.257790000000     0.332620000000     0.0398745  
H498     H      0.037010000000     0.256620000000     0.353790000000     0.0411468  
H499     H      0.899670000000     0.175830000000     0.235990000000     0.0376663  
H500     H      0.092610000000     0.248550000000     0.389450000000     0.0355655  
H501     H      0.363290000000     0.471690000000     0.443410000000     0.0396664  
H502     H      0.290950000000     0.419570000000     0.385190000000     0.033124   
H503     H      0.268570000000     0.382130000000     0.487160000000     0.0392724  
H504     H      0.419580000000     0.435120000000     0.510670000000     0.0397436  
H505     H      0.249210000000     0.413710000000     0.400780000000     0.0397403  
H506     H      0.388250000000     0.483770000000     0.499680000000     0.0340093  
H507     H      0.391930000000     0.420860000000     0.458280000000     0.0330139  
H508     H      0.436440000000     0.507510000000     0.505260000000     0.0408756  
H509     H      0.318540000000     0.451750000000     0.427930000000     0.0422848  
H510     H      0.246660000000     0.394410000000     0.362320000000     0.0344145  
H511     H      0.351120000000     0.401610000000     0.489940000000     0.0429205  
H512     H      0.279740000000     0.386280000000     0.387970000000     0.0404501  
H513     H      0.438730000000     0.443170000000     0.470360000000     0.0380977  
H514     H      0.233910000000     0.387360000000     0.466360000000     0.0258527  
H515     H      0.405610000000     0.486450000000     0.458450000000     0.0361076  
H516     H      0.408600000000     0.451080000000     0.436250000000     0.0383435  
H517     H      0.307280000000     0.380860000000     0.470090000000     0.0402964  
H518     H      0.267390000000     0.364610000000     0.446790000000     0.0443321  
H519     H      0.419360000000     0.482830000000     0.537440000000     0.0371951  
H520     H      0.193980000000     0.341810000000     0.481820000000     0.0368175  
H521     H      0.570990000000     0.039300000000     0.699330000000     0.0407494  
H522     H      0.521860000000     0.992630000000     0.579510000000     0.0350831  
H523     H      0.577310000000     0.070410000000     0.568930000000     0.033825   
H524     H      0.496460000000     0.010790000000     0.782200000000     0.0366149  
H525     H      0.548920000000     0.995340000000     0.529610000000     0.0342554  
H526     H      0.544310000000     0.078970000000     0.726610000000     0.0341066  
H527     H      0.516840000000     0.000310000000     0.734180000000     0.0348146  
H528     H      0.545810000000     0.082470000000     0.794310000000     0.0403775  
H529     H      0.579450000000     0.035320000000     0.635250000000     0.0439143  
H530     H      0.518690000000     0.988420000000     0.510540000000     0.038419   
H531     H      0.502840000000     0.040330000000     0.668680000000     0.0440509  
H532     H      0.512810000000     0.013220000000     0.557060000000     0.0383422  
H533     H      0.518710000000     0.003070000000     0.802170000000     0.0415327  
H534     H      0.586900000000     0.046790000000     0.523890000000     0.0309259  
H535     H      0.564240000000     0.068170000000     0.747060000000     0.0382837  
H536     H      0.548100000000     0.021930000000     0.751700000000     0.0381798  
H537     H      0.512280000000     0.038120000000     0.604380000000     0.040995   
H538     H      0.545870000000     0.059370000000     0.550340000000     0.0391319  
H539     H      0.514230000000     0.062880000000     0.776700000000     0.0375189  
H540     H      0.600850000000     0.079910000000     0.472460000000     0.00460702 
H541     H      0.509250000000     0.054810000000     0.109420000000     0.0410305  
H542     H      0.496310000000     0.017620000000     0.233480000000     0.0343962  
H543     H      0.543780000000     0.096950000000     0.241530000000     0.0405102  
H544     H      0.574150000000     0.038620000000     0.041130000000     0.0359264  
H545     H      0.480060000000     0.033950000000     0.280910000000     0.035809   
H546     H      0.565420000000     0.098100000000     0.081080000000     0.0348147  
H547     H      0.541660000000     0.020170000000     0.088070000000     0.0343061  
H548     H      0.567590000000     0.096510000000     0.013300000000     0.0413032  
H549     H      0.495130000000     0.054830000000     0.171840000000     0.0439088  
H550     H      0.490630000000     0.013740000000     0.300120000000     0.0413547  
H551     H      0.578830000000     0.061030000000     0.150310000000     0.0441275  
H552     H      0.526420000000     0.029580000000     0.256630000000     0.0396928  
H553     H      0.543900000000     0.017660000000     0.020540000000     0.0393666  
H554     H      0.508620000000     0.081500000000     0.284790000000     0.0264696  
H555     H      0.535540000000     0.075670000000     0.060530000000     0.0387476  
H556     H      0.521470000000     0.029540000000     0.064840000000     0.0388131  
H557     H      0.564050000000     0.059590000000     0.212790000000     0.0413287  
H558     H      0.554900000000     0.077310000000     0.261970000000     0.0453146  
H559     H      0.589350000000     0.089390000000     0.036290000000     0.0348875  
H560     H      0.532180000000     0.111470000000     0.342480000000     0.034784   
H561     H      0.742130000000     0.126700000000     0.976010000000     0.040146   
H562     H      0.653940000000     0.057850000000     0.928490000000     0.0348734  
H563     H      0.667300000000     0.132480000000     0.915590000000     0.0408233  
H564     H      0.740440000000     0.111630000000     0.111820000000     0.0365201  
H565     H      0.640590000000     0.063470000000     0.867940000000     0.0342661  
H566     H      0.739390000000     0.165590000000     0.041150000000     0.0345026  
H567     H      0.726070000000     0.091000000000     0.053450000000     0.0343836  
H568     H      0.778130000000     0.182110000000     0.080230000000     0.0411502  
H569     H      0.712950000000     0.113260000000     0.923880000000     0.0439759  
H570     H      0.613610000000     0.040560000000     0.893130000000     0.0415638  
H571     H      0.679680000000     0.110350000000     0.048020000000     0.0444326  
H572     H      0.631280000000     0.064680000000     0.949910000000     0.0409231  
H573     H      0.764800000000     0.106660000000     0.092560000000     0.0407541  
H574     H      0.649560000000     0.106380000000     0.861040000000     0.0260335  
H575     H      0.762670000000     0.158050000000     0.023990000000     0.0373947  
H576     H      0.754830000000     0.114170000000     0.031190000000     0.037335   
H577     H      0.650530000000     0.096980000000     0.995920000000     0.0419503  
H578     H      0.639340000000     0.111160000000     0.941360000000     0.0468395  
H579     H      0.749170000000     0.161160000000     0.103650000000     0.0369165  
H580     H      0.615860000000     0.120980000000     0.836640000000     0.0350359  
H581     H      0.226740000000     0.870840000000     0.481020000000     0.0411935  
H582     H      0.204290000000     0.887550000000     0.607110000000     0.0349739  
H583     H      0.253160000000     0.856510000000     0.612740000000     0.0408222  
H584     H      0.148080000000     0.793590000000     0.428770000000     0.0358317  
H585     H      0.239380000000     0.912580000000     0.649060000000     0.0356369  
H586     H      0.221780000000     0.815330000000     0.462410000000     0.0347528  
H587     H      0.159720000000     0.828870000000     0.469960000000     0.0344198  
H588     H      0.214190000000     0.807190000000     0.395620000000     0.041027   
H589     H      0.243060000000     0.891820000000     0.539660000000     0.044053   
H590     H      0.209680000000     0.897070000000     0.673400000000     0.0411962  
H591     H      0.175300000000     0.801870000000     0.536710000000     0.0440792  
H592     H      0.193900000000     0.859480000000     0.634220000000     0.0410843  
H593     H      0.150690000000     0.820110000000     0.403990000000     0.0410705  
H594     H      0.268390000000     0.894320000000     0.650290000000     0.0264043  
H595     H      0.223690000000     0.841710000000     0.437650000000     0.0388641  
H596     H      0.186590000000     0.849720000000     0.442110000000     0.0398109  
H597     H      0.190840000000     0.823210000000     0.595390000000     0.0418982  
H598     H      0.223850000000     0.840870000000     0.638420000000     0.047181   
H599     H      0.187980000000     0.785300000000     0.423170000000     0.0354944  
H600     H      0.284640000000     0.881040000000     0.712360000000     0.0360781  
H601     H      0.150820000000     0.802090000000     0.072130000000     0.0406947  
H602     H      0.157410000000     0.855040000000     0.948340000000     0.0346249  
H603     H      0.196280000000     0.813890000000     0.957130000000     0.0396765  
H604     H      0.180740000000     0.867000000000     0.171180000000     0.0373272  
H605     H      0.147570000000     0.829030000000     0.894380000000     0.0365688  
H606     H      0.214630000000     0.833050000000     0.107460000000     0.0343307  
H607     H      0.154100000000     0.848450000000     0.118600000000     0.0344761  
H608     H      0.213210000000     0.824550000000     0.174340000000     0.0403119  
H609     H      0.145950000000     0.798340000000     0.005830000000     0.0442478  
H610     H      0.166800000000     0.861550000000     0.882310000000     0.0416432  
H611     H      0.213260000000     0.878090000000     0.060270000000     0.044264   
H612     H      0.191050000000     0.870770000000     0.938580000000     0.0379767  
H613     H      0.152020000000     0.839580000000     0.185560000000     0.0412177  
H614     H      0.175030000000     0.802350000000     0.898960000000     0.0314899  
H615     H      0.183940000000     0.808550000000     0.122980000000     0.0378549  
H616     H      0.148850000000     0.817450000000     0.129570000000     0.0371664  
H617     H      0.209260000000     0.873980000000     0.994150000000     0.0403501  
H618     H      0.213880000000     0.846900000000     0.945520000000     0.0411933  
H619     H      0.222850000000     0.856670000000     0.163190000000     0.0378087  
H620     H      0.239630000000     0.845740000000     0.885290000000     0.0354628  
H621     H      0.364370000000     0.955290000000     0.816990000000     0.0406844  
H622     H      0.435250000000     0.033000000000     0.884180000000     0.0389409  
H623     H      0.417950000000     0.964460000000     0.935640000000     0.039782   
H624     H      0.272930000000     0.930510000000     0.858630000000     0.0382291  
H625     H      0.471470000000     0.056390000000     0.918160000000     0.041285   
H626     H      0.326950000000     0.904390000000     0.859710000000     0.0345533  
H627     H      0.314390000000     0.966200000000     0.847230000000     0.034334   
H628     H      0.287490000000     0.877140000000     0.822780000000     0.0404246  
H629     H      0.408270000000     0.981180000000     0.838780000000     0.0455324  
H630     H      0.456290000000     0.040800000000     0.959530000000     0.0330648  
H631     H      0.336380000000     0.956170000000     0.924340000000     0.0439371  
H632     H      0.419460000000     0.027440000000     0.927300000000     0.03263    
H633     H      0.274490000000     0.938680000000     0.811500000000     0.0398644  
H634     H      0.461150000000     0.983260000000     0.923400000000     0.0355889  
H635     H      0.326700000000     0.916280000000     0.814930000000     0.0365444  
H636     H      0.319480000000     0.951770000000     0.807840000000     0.0373991  
H637     H      0.380200000000     0.983210000000     0.945600000000     0.0402889  
H638     H      0.420840000000     0.990100000000     0.963310000000     0.0411296  
H639     H      0.281890000000     0.886180000000     0.866570000000     0.0351243  
H640     H      0.487580000000     0.992010000000     0.987230000000     0.041805   
H641     H      0.812390000000     0.641930000000     0.943220000000     0.0404547  
H642     H      0.830280000000     0.701630000000     0.812240000000     0.0342407  
H643     H      0.861520000000     0.656380000000     0.845060000000     0.0382647  
H644     H      0.798050000000     0.686620000000     0.038730000000     0.0358733  
H645     H      0.823060000000     0.676920000000     0.759800000000     0.0370233  
H646     H      0.868400000000     0.710070000000     0.987050000000     0.033366   
H647     H      0.788490000000     0.659320000000     0.986150000000     0.0345405  
H648     H      0.869200000000     0.708580000000     0.053860000000     0.0409875  
H649     H      0.817790000000     0.638750000000     0.878400000000     0.0434785  
H650     H      0.850860000000     0.706320000000     0.750040000000     0.0406898  
H651     H      0.849950000000     0.723070000000     0.933920000000     0.0429246  
H652     H      0.864200000000     0.713700000000     0.811400000000     0.0358263  
H653     H      0.788710000000     0.655340000000     0.054150000000     0.0409063  
H654     H      0.846680000000     0.640800000000     0.785940000000     0.031857   
H655     H      0.856260000000     0.678190000000     0.002880000000     0.0399942  
H656     H      0.809430000000     0.648280000000     0.002390000000     0.0384496  
H657     H      0.857770000000     0.720040000000     0.870000000000     0.0397656  
H658     H      0.881410000000     0.688430000000     0.830560000000     0.0432235  
H659     H      0.848780000000     0.719970000000     0.037570000000     0.0364205  
H660     H      0.887070000000     0.638280000000     0.768080000000     0.0362813  
H661     H      0.819260000000     0.638340000000     0.368000000000     0.0406196  
H662     H      0.841030000000     0.598030000000     0.492300000000     0.0345513  
H663     H      0.873130000000     0.675480000000     0.467460000000     0.0386577  
H664     H      0.833260000000     0.597860000000     0.260860000000     0.0363403  
H665     H      0.832220000000     0.611470000000     0.547100000000     0.0377626  
H666     H      0.883560000000     0.661020000000     0.324500000000     0.0340564  
H667     H      0.811290000000     0.594550000000     0.317400000000     0.0345735  
H668     H      0.881720000000     0.670170000000     0.259390000000     0.041091   
H669     H      0.821250000000     0.641360000000     0.434240000000     0.0443003  
H670     H      0.861140000000     0.611690000000     0.556560000000     0.0397179  
H671     H      0.876830000000     0.616530000000     0.368790000000     0.0437798  
H672     H      0.874790000000     0.619270000000     0.495770000000     0.0351802  
H673     H      0.807750000000     0.603980000000     0.251730000000     0.0410752  
H674     H      0.858010000000     0.675350000000     0.525860000000     0.0323529  
H675     H      0.855910000000     0.663710000000     0.314070000000     0.0390722  
H676     H      0.813390000000     0.624720000000     0.309980000000     0.0375646  
H677     H      0.880230000000     0.621440000000     0.434740000000     0.0401873  
H678     H      0.892540000000     0.662310000000     0.480980000000     0.042362   
H679     H      0.881210000000     0.640860000000     0.266620000000     0.0366279  
H680     H      0.899210000000     0.714910000000     0.549050000000     0.0359659  
H681     H      0.717970000000     0.592210000000     0.569800000000     0.0409251  
H682     H      0.624830000000     0.520090000000     0.593630000000     0.0344073  
H683     H      0.633320000000     0.592880000000     0.587660000000     0.0391656  
H684     H      0.765900000000     0.598340000000     0.687970000000     0.0377584  
H685     H      0.594990000000     0.514890000000     0.548020000000     0.0386989  
H686     H      0.738310000000     0.639630000000     0.628640000000     0.0345595  
H687     H      0.733480000000     0.568930000000     0.647020000000     0.034378   
H688     H      0.785810000000     0.661410000000     0.633830000000     0.0412201  
H689     H      0.674030000000     0.572700000000     0.547180000000     0.0446806  
H690     H      0.577030000000     0.501210000000     0.588420000000     0.0399478  
H691     H      0.690740000000     0.585600000000     0.679680000000     0.0443437  
H692     H      0.610450000000     0.530440000000     0.627220000000     0.0366814  
H693     H      0.781000000000     0.590240000000     0.652700000000     0.0404026  
H694     H      0.598690000000     0.572450000000     0.548520000000     0.0307877  
H695     H      0.753010000000     0.628350000000     0.596860000000     0.0377526  
H696     H      0.750140000000     0.587190000000     0.607540000000     0.0376885  
H697     H      0.646880000000     0.565440000000     0.657300000000     0.0402093  
H698     H      0.617540000000     0.572530000000     0.625520000000     0.0413735  
H699     H      0.769290000000     0.646850000000     0.675110000000     0.0365138  
H700     H      0.572860000000     0.591100000000     0.578670000000     0.0334664  
H701     H      0.003580000000     0.734690000000     0.739630000000     0.0410481  
H702     H      0.099290000000     0.751280000000     0.722310000000     0.0348484  
H703     H      0.085820000000     0.812390000000     0.711110000000     0.0390007  
H704     H      0.952510000000     0.675560000000     0.637530000000     0.0379346  
H705     H      0.129430000000     0.779760000000     0.763710000000     0.0391121  
H706     H      0.987790000000     0.754330000000     0.659770000000     0.0345215  
H707     H      0.983810000000     0.684730000000     0.684510000000     0.0349154  
H708     H      0.940390000000     0.732580000000     0.654150000000     0.0412584  
H709     H      0.047550000000     0.760360000000     0.761300000000     0.0449082  
H710     H      0.147330000000     0.783490000000     0.723480000000     0.0398205  
H711     H      0.031140000000     0.737620000000     0.630780000000     0.0443911  
H712     H      0.112210000000     0.772680000000     0.684530000000     0.0354002  
H713     H      0.936150000000     0.662400000000     0.679500000000     0.0411698  
H714     H      0.119470000000     0.830860000000     0.752100000000     0.0319568  
H715     H      0.971320000000     0.737380000000     0.700210000000     0.0384094  
H716     H      0.969020000000     0.696870000000     0.714650000000     0.038103   
H717     H      0.075000000000     0.763550000000     0.652240000000     0.0400745  
H718     H      0.103230000000     0.806030000000     0.677350000000     0.0411684  
H719     H      0.955470000000     0.723310000000     0.620390000000     0.0376223  
H720     H      0.144900000000     0.873190000000     0.716800000000     0.0348348  
N1       N      0.750560000000     0.913230000000     0.801470000000    -0.178387   
N2       N      0.776140000000     0.963110000000     0.769990000000    -0.111569   
N3       N      0.784890000000     0.055750000000     0.725810000000    -0.113654   
N4       N      0.796900000000     0.098780000000     0.683020000000    -0.176255   
N5       N      0.941210000000     0.425490000000     0.481660000000    -0.175467   
N6       N      0.913890000000     0.381890000000     0.525600000000    -0.111896   
N7       N      0.864670000000     0.281230000000     0.579010000000    -0.1131     
N8       N      0.848450000000     0.235000000000     0.613890000000    -0.172038   
N9       N      0.026460000000     0.551630000000     0.375440000000    -0.175405   
N10      N      0.058970000000     0.601180000000     0.351780000000    -0.111145   
N11      N      0.111900000000     0.697740000000     0.283890000000    -0.113989   
N12      N      0.140620000000     0.750330000000     0.273200000000    -0.17278    
N13      N      0.585430000000     0.580930000000     0.996490000000    -0.176554   
N14      N      0.615750000000     0.632550000000     0.977720000000    -0.110823   
N15      N      0.666960000000     0.723430000000     0.895300000000    -0.113485   
N16      N      0.689860000000     0.773480000000     0.869530000000    -0.17235    
N17      N      0.225910000000     0.895690000000     0.307600000000    -0.175023   
N18      N      0.254350000000     0.945440000000     0.289440000000    -0.10979    
N19      N      0.312260000000     0.050250000000     0.255950000000    -0.11342    
N20      N      0.336280000000     0.098390000000     0.223530000000    -0.17227    
N21      N      0.403480000000     0.235970000000     0.144640000000    -0.175072   
N22      N      0.428500000000     0.288220000000     0.130300000000    -0.111312   
N23      N      0.476970000000     0.388140000000     0.072680000000    -0.113421   
N24      N      0.506520000000     0.440170000000     0.058230000000    -0.171938   
N25      N      0.726040000000     0.819420000000     0.739360000000    -0.17763    
N26      N      0.728930000000     0.824280000000     0.663040000000    -0.112876   
N27      N      0.721740000000     0.857730000000     0.521320000000    -0.113463   
N28      N      0.717320000000     0.862760000000     0.445850000000    -0.172307   
N29      N      0.714880000000     0.866700000000     0.932870000000    -0.175156   
N30      N      0.707160000000     0.866750000000     0.006830000000    -0.110396   
N31      N      0.700670000000     0.877640000000     0.159700000000    -0.113582   
N32      N      0.704430000000     0.875460000000     0.235860000000    -0.172237   
N33      N      0.735200000000     0.820390000000     0.319010000000    -0.175111   
N34      N      0.755480000000     0.788390000000     0.301870000000    -0.112251   
N35      N      0.793610000000     0.732760000000     0.226010000000    -0.113281   
N36      N      0.811820000000     0.701340000000     0.200570000000    -0.171873   
N37      N      0.686750000000     0.916090000000     0.355640000000    -0.175148   
N38      N      0.665420000000     0.947840000000     0.366690000000    -0.112175   
N39      N      0.608340000000     0.998150000000     0.348710000000    -0.11392    
N40      N      0.575360000000     0.017300000000     0.362040000000    -0.172805   
N41      N      0.013340000000     0.523080000000     0.522780000000    -0.177115   
N42      N      0.014600000000     0.528360000000     0.599150000000    -0.112391   
N43      N      0.991500000000     0.514560000000     0.751090000000    -0.113052   
N44      N      0.987920000000     0.504910000000     0.826400000000    -0.172237   
N45      N      0.986510000000     0.478090000000     0.034830000000    -0.176061   
N46      N      0.982960000000     0.467900000000     0.110320000000    -0.111685   
N47      N      0.956870000000     0.450470000000     0.261160000000    -0.113474   
N48      N      0.956490000000     0.455390000000     0.337100000000    -0.172913   
N49      N      0.947490000000     0.522700000000     0.949750000000    -0.17478    
N50      N      0.921950000000     0.541840000000     0.988980000000    -0.110196   
N51      N      0.876560000000     0.593020000000     0.057870000000    -0.113308   
N52      N      0.860580000000     0.619310000000     0.103530000000    -0.172105   
N53      N      0.366940000000     0.148110000000     0.780010000000    -0.175979   
N54      N      0.361710000000     0.145120000000     0.853980000000    -0.109567   
N55      N      0.354200000000     0.132570000000     0.007960000000    -0.113661   
N56      N      0.358350000000     0.141380000000     0.083620000000    -0.172173   
N57      N      0.382170000000     0.209980000000     0.589590000000    -0.177274   
N58      N      0.386300000000     0.213390000000     0.512880000000    -0.112729   
N59      N      0.381690000000     0.192030000000     0.361500000000    -0.112929   
N60      N      0.379880000000     0.188800000000     0.285390000000    -0.171735   
N61      N      0.395160000000     0.145140000000     0.625440000000    -0.176399   
N62      N      0.408380000000     0.120910000000     0.570600000000    -0.112675   
N63      N      0.461870000000     0.077870000000     0.501050000000    -0.113357   
N64      N      0.488860000000     0.062360000000     0.456000000000    -0.172306   
N65      N      0.029850000000     0.459100000000     0.908660000000    -0.174882   
N66      N      0.059880000000     0.435660000000     0.907170000000    -0.111284   
N67      N      0.123520000000     0.393860000000     0.875600000000    -0.113387   
N68      N      0.155660000000     0.372910000000     0.874680000000    -0.171626   
N69      N      0.349890000000     0.224480000000     0.734180000000    -0.175308   
N70      N      0.330980000000     0.250650000000     0.775750000000    -0.111803   
N71      N      0.277120000000     0.299420000000     0.823190000000    -0.112774   
N72      N      0.246630000000     0.317100000000     0.852940000000    -0.171874   
N73      N      0.530750000000     0.501500000000     0.930230000000    -0.176401   
N74      N      0.517130000000     0.505860000000     0.858540000000    -0.112277   
N75      N      0.496650000000     0.500620000000     0.706550000000    -0.111275   
N76      N      0.488470000000     0.498460000000     0.633350000000    -0.171129   
N77      N      0.567970000000     0.530640000000     0.134040000000    -0.176551   
N78      N      0.563690000000     0.523300000000     0.207160000000    -0.109543   
N79      N      0.555430000000     0.520180000000     0.361270000000    -0.113501   
N80      N      0.537260000000     0.514360000000     0.433060000000    -0.172672   
N81      N      0.831870000000     0.171560000000     0.746070000000    -0.178107   
N82      N      0.839130000000     0.169780000000     0.820930000000    -0.111777   
N83      N      0.867530000000     0.171200000000     0.968780000000    -0.113854   
N84      N      0.868930000000     0.174170000000     0.045210000000    -0.172847   
N85      N      0.811090000000     0.148120000000     0.538200000000    -0.176393   
N86      N      0.807270000000     0.146990000000     0.461370000000    -0.112131   
N87      N      0.799450000000     0.162970000000     0.309940000000    -0.113568   
N88      N      0.806640000000     0.167780000000     0.234260000000    -0.173236   
N89      N      0.137670000000     0.339770000000     0.473050000000    -0.177201   
N90      N      0.147540000000     0.347160000000     0.548370000000    -0.113173   
N91      N      0.192890000000     0.351580000000     0.685400000000    -0.11359    
N92      N      0.200040000000     0.348800000000     0.760650000000    -0.172589   
N93      N      0.202700000000     0.339320000000     0.973090000000    -0.17558    
N94      N      0.204480000000     0.332370000000     0.049180000000    -0.111991   
N95      N      0.186540000000     0.327840000000     0.201720000000    -0.112656   
N96      N      0.184300000000     0.334190000000     0.276320000000    -0.171623   
N97      N      0.091110000000     0.298650000000     0.341400000000    -0.174801   
N98      N      0.046480000000     0.271460000000     0.300180000000    -0.110973   
N99      N      0.947820000000     0.220030000000     0.235580000000    -0.113306   
N100     N      0.904310000000     0.199280000000     0.191060000000    -0.171969   
N101     N      0.231630000000     0.374670000000     0.412360000000    -0.176587   
N102     N      0.282090000000     0.404110000000     0.438910000000    -0.111382   
N103     N      0.386810000000     0.449770000000     0.482710000000    -0.112276   
N104     N      0.439320000000     0.474100000000     0.498460000000    -0.172102   
N105     N      0.549560000000     0.026140000000     0.503110000000    -0.179337   
N106     N      0.550900000000     0.031430000000     0.578050000000    -0.113011   
N107     N      0.528630000000     0.039140000000     0.726440000000    -0.113532   
N108     N      0.529310000000     0.042450000000     0.803040000000    -0.171998   
N109     N      0.514760000000     0.053890000000     0.310090000000    -0.176267   
N110     N      0.519490000000     0.057610000000     0.233260000000    -0.112887   
N111     N      0.555040000000     0.059620000000     0.088830000000    -0.113618   
N112     N      0.558300000000     0.057470000000     0.012420000000    -0.172621   
N113     N      0.616690000000     0.077270000000     0.886750000000    -0.177286   
N114     N      0.663130000000     0.096260000000     0.924680000000    -0.113176   
N115     N      0.729380000000     0.127130000000     0.047370000000    -0.113737   
N116     N      0.772360000000     0.145120000000     0.092980000000    -0.172614   
N117     N      0.234750000000     0.881710000000     0.681080000000    -0.177209   
N118     N      0.228930000000     0.872070000000     0.605650000000    -0.112852   
N119     N      0.190370000000     0.821260000000     0.470640000000    -0.113779   
N120     N      0.180880000000     0.811510000000     0.395620000000    -0.172568   
N121     N      0.185190000000     0.838960000000     0.880080000000    -0.175759   
N122     N      0.174460000000     0.832250000000     0.955980000000    -0.112294   
N123     N      0.186130000000     0.843650000000     0.109940000000    -0.113512   
N124     N      0.185920000000     0.836410000000     0.185700000000    -0.17206    
N125     N      0.471660000000     0.021910000000     0.930320000000    -0.175162   
N126     N      0.423580000000     0.997010000000     0.906300000000    -0.109328   
N127     N      0.321170000000     0.935990000000     0.858880000000    -0.113424   
N128     N      0.274950000000     0.904460000000     0.823000000000    -0.172528   
N129     N      0.856920000000     0.674990000000     0.758440000000    -0.175504   
N130     N      0.841710000000     0.675710000000     0.830490000000    -0.11076    
N131     N      0.828080000000     0.686280000000     0.982430000000    -0.113254   
N132     N      0.828680000000     0.682940000000     0.058880000000    -0.172793   
N133     N      0.864350000000     0.648010000000     0.551750000000    -0.175292   
N134     N      0.852850000000     0.636090000000     0.478410000000    -0.110797   
N135     N      0.848460000000     0.626200000000     0.324110000000    -0.113617   
N136     N      0.845740000000     0.636200000000     0.249860000000    -0.172473   
N137     N      0.579370000000     0.535800000000     0.571280000000    -0.174916   
N138     N      0.631740000000     0.557450000000     0.585830000000    -0.111156   
N139     N      0.733110000000     0.603330000000     0.640930000000    -0.113616   
N140     N      0.786310000000     0.627770000000     0.650310000000    -0.172287   
N141     N      0.141430000000     0.814300000000     0.736300000000    -0.175274   
N142     N      0.089980000000     0.780530000000     0.721970000000    -0.110848   
N143     N      0.988620000000     0.720390000000     0.669120000000    -0.113379   
N144     N      0.935310000000     0.695230000000     0.659940000000    -0.171928   
Ni1      Ni     0.859520000000     0.641910000000     0.662790000000     0.9936     
Ni2      Ni     0.862070000000     0.680930000000     0.647590000000     1.00306    
Ni3      Ni     0.213590000000     0.843020000000     0.777720000000     1.00051    
Ni4      Ni     0.203000000000     0.875490000000     0.781540000000     0.996622   
Ni5      Ni     0.541130000000     0.029260000000     0.908730000000     1.00129    
Ni6      Ni     0.546870000000     0.070630000000     0.906610000000     0.993515   
Ni7      Ni     0.161190000000     0.317670000000     0.382660000000     0.997321   
Ni8      Ni     0.162730000000     0.356280000000     0.367870000000     1.00027    
Ni9      Ni     0.834930000000     0.150800000000     0.144590000000     0.99553    
Ni10     Ni     0.842730000000     0.192670000000     0.136240000000     1.00103    
Ni11     Ni     0.508250000000     0.484820000000     0.533120000000     0.993922   
Ni12     Ni     0.511770000000     0.525290000000     0.530540000000     1.00458    
Ni13     Ni     0.219060000000     0.365510000000     0.868110000000     0.992321   
Ni14     Ni     0.183340000000     0.324000000000     0.865670000000     1.00421    
Ni15     Ni     0.394400000000     0.196870000000     0.693710000000     1.00578    
Ni16     Ni     0.351400000000     0.166760000000     0.679950000000     1.00251    
Ni17     Ni     0.007270000000     0.510490000000     0.934000000000     1.00168    
Ni18     Ni     0.969670000000     0.470740000000     0.926300000000     0.995484   
Ni19     Ni     0.732650000000     0.885120000000     0.339450000000     0.995643   
Ni20     Ni     0.690000000000     0.851230000000     0.341540000000     1.00126    
Ni21     Ni     0.857730000000     0.676830000000     0.156260000000     1.00608    
Ni22     Ni     0.815260000000     0.642440000000     0.153330000000     0.990193   
Ni23     Ni     0.549230000000     0.060850000000     0.409160000000     1.00096    
Ni24     Ni     0.514040000000     0.018840000000     0.405810000000     0.997349   
Ni25     Ni     0.350070000000     0.166460000000     0.183300000000     0.999307   
Ni26     Ni     0.389810000000     0.167480000000     0.184020000000     0.996488   
Ni27     Ni     0.529080000000     0.514380000000     0.037960000000     1.00026    
Ni28     Ni     0.565120000000     0.509370000000     0.027840000000     1.00828    
Ni29     Ni     0.164550000000     0.824930000000     0.292760000000     0.999707   
Ni30     Ni     0.201630000000     0.821100000000     0.288070000000     0.997441   
Ni31     Ni     0.968210000000     0.494520000000     0.432200000000     0.999239   
Ni32     Ni     0.000740000000     0.483710000000     0.427900000000     1.00053    
Ni33     Ni     0.801280000000     0.161510000000     0.644570000000     0.997783   
Ni34     Ni     0.843080000000     0.167530000000     0.639600000000     1.01193    
Ni35     Ni     0.699880000000     0.839920000000     0.828350000000     1.00417    
Ni36     Ni     0.741170000000     0.847080000000     0.843280000000     0.993963   
O1       O      0.860230000000     0.636100000000     0.611720000000    -0.449814   
O2       O      0.859010000000     0.650370000000     0.712880000000    -0.448392   
O3       O      0.823210000000     0.626790000000     0.660340000000    -0.450111   
O4       O      0.895990000000     0.659600000000     0.664120000000    -0.44973    
O5       O      0.898290000000     0.696290000000     0.651930000000    -0.45125    
O6       O      0.825710000000     0.663020000000     0.644340000000    -0.452316   
O7       O      0.859400000000     0.685860000000     0.698340000000    -0.452986   
O8       O      0.864500000000     0.673410000000     0.597780000000    -0.451383   
O9       O      0.200200000000     0.833070000000     0.825660000000    -0.449244   
O10      O      0.226690000000     0.855360000000     0.730120000000    -0.448519   
O11      O      0.245960000000     0.866250000000     0.798450000000    -0.451261   
O12      O      0.180340000000     0.821810000000     0.757480000000    -0.448843   
O13      O      0.170440000000     0.852140000000     0.761850000000    -0.451134   
O14      O      0.236420000000     0.896920000000     0.800710000000    -0.451075   
O15      O      0.215870000000     0.885040000000     0.733120000000    -0.450756   
O16      O      0.190820000000     0.863700000000     0.829850000000    -0.449237   
O17      O      0.548680000000     0.034410000000     0.959700000000    -0.451446   
O18      O      0.533610000000     0.026730000000     0.857700000000    -0.449681   
O19      O      0.576630000000     0.044060000000     0.897930000000    -0.453659   
O20      O      0.506190000000     0.017200000000     0.919480000000    -0.45532    
O21      O      0.511060000000     0.055680000000     0.916560000000    -0.448263   
O22      O      0.582120000000     0.082680000000     0.896820000000    -0.447806   
O23      O      0.539870000000     0.065740000000     0.855550000000    -0.449827   
O24      O      0.553800000000     0.072990000000     0.957760000000    -0.449589   
O25      O      0.173590000000     0.318090000000     0.334340000000    -0.44684    
O26      O      0.148560000000     0.319750000000     0.429530000000    -0.446468   
O27      O      0.127170000000     0.300430000000     0.364540000000    -0.450465   
O28      O      0.195260000000     0.337400000000     0.400560000000    -0.447392   
O29      O      0.197400000000     0.373450000000     0.384170000000    -0.450998   
O30      O      0.127890000000     0.336360000000     0.352240000000    -0.448217   
O31      O      0.151540000000     0.356540000000     0.416400000000    -0.453564   
O32      O      0.173960000000     0.353710000000     0.320600000000    -0.454666   
O33      O      0.850780000000     0.153830000000     0.098540000000    -0.452531   
O34      O      0.818940000000     0.150130000000     0.189640000000    -0.452611   
O35      O      0.803000000000     0.139150000000     0.120400000000    -0.450327   
O36      O      0.867570000000     0.165490000000     0.168580000000    -0.446615   
O37      O      0.874780000000     0.204450000000     0.159350000000    -0.455056   
O38      O      0.809930000000     0.178210000000     0.113660000000    -0.452568   
O39      O      0.827510000000     0.189780000000     0.183080000000    -0.449516   
O40      O      0.857750000000     0.192790000000     0.090260000000    -0.450221   
O41      O      0.521890000000     0.490740000000     0.484970000000    -0.451805   
O42      O      0.495110000000     0.481720000000     0.581420000000    -0.44971    
O43      O      0.474570000000     0.471300000000     0.513550000000    -0.449219   
O44      O      0.542150000000     0.501080000000     0.552510000000    -0.449509   
O45      O      0.546120000000     0.539050000000     0.546980000000    -0.450436   
O46      O      0.477010000000     0.508800000000     0.514930000000    -0.452082   
O47      O      0.500770000000     0.520560000000     0.579930000000    -0.45337    
O48      O      0.522910000000     0.527520000000     0.481310000000    -0.452844   
O49      O      0.218750000000     0.361570000000     0.919880000000    -0.447477   
O50      O      0.216790000000     0.366680000000     0.816100000000    -0.448551   
O51      O      0.195670000000     0.377740000000     0.872840000000    -0.450629   
O52      O      0.240230000000     0.350590000000     0.863050000000    -0.449503   
O53      O      0.206760000000     0.311820000000     0.860960000000    -0.45262    
O54      O      0.162180000000     0.339030000000     0.870150000000    -0.449882   
O55      O      0.183770000000     0.327660000000     0.814100000000    -0.454305   
O56      O      0.185440000000     0.322800000000     0.917400000000    -0.453663   
O57      O      0.390300000000     0.178820000000     0.738090000000    -0.452249   
O58      O      0.396000000000     0.212400000000     0.648250000000    -0.454819   
O59      O      0.381890000000     0.216600000000     0.717070000000    -0.448958   
O60      O      0.403960000000     0.175730000000     0.668140000000    -0.44959    
O61      O      0.363720000000     0.146950000000     0.656970000000    -0.454243   
O62      O      0.341880000000     0.188740000000     0.703140000000    -0.454732   
O63      O      0.356160000000     0.184000000000     0.634590000000    -0.452178   
O64      O      0.349770000000     0.151290000000     0.725930000000    -0.452049   
O65      O      0.005920000000     0.516060000000     0.883040000000    -0.451933   
O66      O      0.005710000000     0.502640000000     0.984660000000    -0.450765   
O67      O      0.026220000000     0.493630000000     0.924360000000    -0.450626   
O68      O      0.986030000000     0.524670000000     0.942900000000    -0.452425   
O69      O      0.950700000000     0.487640000000     0.936000000000    -0.448272   
O70      O      0.991040000000     0.456600000000     0.917180000000    -0.449217   
O71      O      0.970900000000     0.465250000000     0.977330000000    -0.450987   
O72      O      0.971020000000     0.478740000000     0.875660000000    -0.450036   
O73      O      0.728050000000     0.887220000000     0.288320000000    -0.450457   
O74      O      0.734500000000     0.880840000000     0.390740000000    -0.450928   
O75      O      0.742890000000     0.860610000000     0.330300000000    -0.45091    
O76      O      0.719480000000     0.907380000000     0.348370000000    -0.447308   
O77      O      0.679710000000     0.875690000000     0.349890000000    -0.453291   
O78      O      0.703120000000     0.828980000000     0.332650000000    -0.449347   
O79      O      0.694480000000     0.849390000000     0.392770000000    -0.45185    
O80      O      0.688160000000     0.855480000000     0.290250000000    -0.450954   
O81      O      0.860560000000     0.664320000000     0.202590000000    -0.454404   
O82      O      0.852260000000     0.687060000000     0.109680000000    -0.454789   
O83      O      0.844390000000     0.695910000000     0.179280000000    -0.451214   
O84      O      0.868210000000     0.655580000000     0.132740000000    -0.451948   
O85      O      0.828510000000     0.623500000000     0.129690000000    -0.449751   
O86      O      0.804760000000     0.663660000000     0.176900000000    -0.450118   
O87      O      0.812360000000     0.655370000000     0.106990000000    -0.448152   
O88      O      0.821090000000     0.631860000000     0.199820000000    -0.448382   
O89      O      0.555780000000     0.052040000000     0.456340000000    -0.478272   
O90      O      0.539860000000     0.066520000000     0.361730000000    -0.447539   
O91      O      0.526730000000     0.070510000000     0.430690000000    -0.455626   
O92      O      0.569500000000     0.048340000000     0.387390000000    -0.45323    
O93      O      0.536470000000     0.009430000000     0.383120000000    -0.452038   
O94      O      0.494040000000     0.031250000000     0.429100000000    -0.448965   
O95      O      0.506770000000     0.027750000000     0.359150000000    -0.451895   
O96      O      0.523720000000     0.012330000000     0.452490000000    -0.453305   
O97      O      0.345640000000     0.153960000000     0.134470000000    -0.450292   
O98      O      0.356960000000     0.178660000000     0.232290000000    -0.450776   
O99      O      0.367870000000     0.200370000000     0.165260000000    -0.451425   
O100     O      0.334890000000     0.132760000000     0.201500000000    -0.452663   
O101     O      0.371950000000     0.133520000000     0.202080000000    -0.449928   
O102     O      0.404970000000     0.201300000000     0.165900000000    -0.448854   
O103     O      0.394180000000     0.179740000000     0.232910000000    -0.45023    
O104     O      0.382870000000     0.155120000000     0.135160000000    -0.451065   
O105     O      0.520100000000     0.505290000000     0.988210000000    -0.453778   
O106     O      0.540660000000     0.523570000000     0.086810000000    -0.453963   
O107     O      0.549790000000     0.548890000000     0.023290000000    -0.450592   
O108     O      0.510710000000     0.479440000000     0.051530000000    -0.450531   
O109     O      0.544160000000     0.474650000000     0.040850000000    -0.453051   
O110     O      0.583470000000     0.544140000000     0.014510000000    -0.453463   
O111     O      0.573690000000     0.517780000000     0.077990000000    -0.453691   
O112     O      0.554560000000     0.501910000000     0.978380000000    -0.450646   
O113     O      0.166980000000     0.830960000000     0.241480000000    -0.452096   
O114     O      0.164620000000     0.818920000000     0.343780000000    -0.452719   
O115     O      0.186630000000     0.860250000000     0.300950000000    -0.451108   
O116     O      0.144950000000     0.789260000000     0.284290000000    -0.450852   
O117     O      0.179670000000     0.785850000000     0.279740000000    -0.452872   
O118     O      0.221280000000     0.856650000000     0.296680000000    -0.451862   
O119     O      0.199130000000     0.815130000000     0.339560000000    -0.449628   
O120     O      0.201550000000     0.827290000000     0.236930000000    -0.44967    
O121     O      0.983370000000     0.511010000000     0.477230000000    -0.446974   
O122     O      0.955560000000     0.477730000000     0.386530000000    -0.449775   
O123     O      0.948210000000     0.463250000000     0.457500000000    -0.448887   
O124     O      0.990100000000     0.524850000000     0.406590000000    -0.454211   
O125     O      0.020530000000     0.514840000000     0.401910000000    -0.447912   
O126     O      0.978790000000     0.453460000000     0.453860000000    -0.453151   
O127     O      0.985480000000     0.466880000000     0.383310000000    -0.452495   
O128     O      0.013670000000     0.500830000000     0.473040000000    -0.453694   
O129     O      0.807950000000     0.167630000000     0.695660000000    -0.450456   
O130     O      0.797280000000     0.154400000000     0.593510000000    -0.447087   
O131     O      0.789220000000     0.126940000000     0.654700000000    -0.456731   
O132     O      0.816050000000     0.196900000000     0.634290000000    -0.449977   
O133     O      0.854470000000     0.201540000000     0.625580000000    -0.454463   
O134     O      0.828730000000     0.133270000000     0.655520000000    -0.453048   
O135     O      0.835300000000     0.157570000000     0.589820000000    -0.455503   
O136     O      0.848270000000     0.177020000000     0.689360000000    -0.4563     
O137     O      0.703880000000     0.828360000000     0.781840000000    -0.450022   
O138     O      0.698460000000     0.851590000000     0.876170000000    -0.451497   
O139     O      0.716110000000     0.873880000000     0.810520000000    -0.452583   
O140     O      0.686370000000     0.806510000000     0.846840000000    -0.454167   
O141     O      0.724900000000     0.812560000000     0.859390000000    -0.448352   
O142     O      0.754570000000     0.881050000000     0.826500000000    -0.450213   
O143     O      0.736740000000     0.857510000000     0.890360000000    -0.450998   
O144     O      0.742990000000     0.836430000000     0.794920000000    -0.4512     
S1       S      0.716950000000     0.929270000000     0.808130000000    -0.0500083  
S2       S      0.897260000000     0.423030000000     0.457200000000    -0.0362972  
S3       S      0.050980000000     0.532750000000     0.335890000000    -0.0414613  
S4       S      0.597250000000     0.577700000000     0.927430000000    -0.0469582  
S5       S      0.197510000000     0.903340000000     0.356400000000    -0.0478975  
S6       S      0.438850000000     0.229780000000     0.107480000000    -0.0396264  
S7       S      0.673600000000     0.786700000000     0.738110000000    -0.0387275  
S8       S      0.763190000000     0.905540000000     0.935790000000    -0.04508    
S9       S      0.687970000000     0.785630000000     0.291770000000    -0.0360809  
S10      S      0.730150000000     0.955070000000     0.324960000000    -0.0363204  
S11      S      0.993910000000     0.555490000000     0.512740000000    -0.0378621  
S12      S      0.997170000000     0.526770000000     0.045960000000    -0.0380263  
S13      S      0.978590000000     0.567120000000     0.916750000000    -0.0431553  
S14      S      0.340470000000     0.097850000000     0.782180000000    -0.0554011  
S15      S      0.433810000000     0.223420000000     0.597200000000    -0.0359203  
S16      S      0.437450000000     0.192160000000     0.609340000000    -0.0210075  
S17      S      0.993480000000     0.423140000000     0.865000000000    -0.0388609  
S18      S      0.393840000000     0.268070000000     0.717540000000    -0.036918   
S19      S      0.580600000000     0.539150000000     0.921380000000    -0.0185015  
S20      S      0.617960000000     0.557530000000     0.146100000000    -0.0547264  
S21      S      0.790690000000     0.122480000000     0.744190000000    -0.0589423  
S22      S      0.758310000000     0.123630000000     0.546270000000    -0.0372151  
S23      S      0.112690000000     0.287390000000     0.479730000000    -0.0334302  
S24      S      0.217780000000     0.389430000000     0.981380000000    -0.0387302  
S25      S      0.077950000000     0.259830000000     0.388560000000    -0.0407091  
S26      S      0.216420000000     0.343160000000     0.472160000000    -0.0403391  
S27      S      0.576870000000     0.072270000000     0.485280000000     0.0800186  
S28      S      0.546070000000     0.106050000000     0.318510000000    -0.0377299  
S29      S      0.624730000000     0.125440000000     0.871660000000    -0.0374987  
S30      S      0.268320000000     0.863250000000     0.688220000000    -0.0378694  
S31      S      0.219480000000     0.821570000000     0.886390000000    -0.0368239  
S32      S      0.464680000000     0.991400000000     0.986840000000    -0.0554865  
S33      S      0.891690000000     0.661660000000     0.778700000000    -0.0429475  
S34      S      0.902470000000     0.695430000000     0.537450000000    -0.0429718  
S35      S      0.577300000000     0.575610000000     0.600680000000    -0.0388716  
S36      S      0.141200000000     0.852220000000     0.698220000000    -0.0439609  


