data_structure

_audit_creation_method RASPA-1.0
_audit_creation_date 2023-5-25
_audit_author_name 'Poobodin Mano'

_cell_length_a    38.0379
_cell_length_b    37.9272
_cell_length_c    38.238
_cell_angle_alpha 90
_cell_angle_beta  90
_cell_angle_gamma 90
_cell_volume      55164.9

_symmetry_cell_setting          triclinic
_symmetry_space_group_name_Hall 'P 1'
_symmetry_space_group_name_H-M  'P 1'
_symmetry_Int_Tables_number     1

_symmetry_equiv_pos_as_xyz 'x,y,z'

loop_
_atom_site_label
_atom_site_type_symbol
_atom_site_fract_x
_atom_site_fract_y
_atom_site_fract_z
_atom_site_charge
C1       C      0.994120000000     0.067680000000     0.491250000000     0.430821   
C2       C      0.977640000000     0.934450000000     0.483570000000     0.430394   
C3       C      0.920090000000     0.009590000000     0.489200000000     0.431171   
C4       C      0.052940000000     0.993570000000     0.485690000000     0.431916   
C5       C      0.001780000000     0.435310000000     0.505080000000     0.428838   
C6       C      0.985040000000     0.567500000000     0.486440000000     0.428385   
C7       C      0.994770000000     0.493550000000     0.429360000000     0.428328   
C8       C      0.991800000000     0.510150000000     0.562000000000     0.428868   
C9       C      0.554000000000     0.991290000000     0.480420000000     0.432447   
C10      C      0.420400000000     0.982710000000     0.483900000000     0.429489   
C11      C      0.486940000000     0.986840000000     0.415450000000     0.431425   
C12      C      0.487670000000     0.986970000000     0.548760000000     0.42848    
C13      C      0.490790000000     0.988980000000     0.915480000000     0.432088   
C14      C      0.491650000000     0.989500000000     0.048840000000     0.429035   
C15      C      0.486030000000     0.922740000000     0.981690000000     0.430149   
C16      C      0.496670000000     0.057020000000     0.981550000000     0.42991    
C17      C      0.999300000000     0.488350000000     0.061950000000     0.425944   
C18      C      0.999050000000     0.494080000000     0.928330000000     0.425869   
C19      C      0.065400000000     0.482920000000     0.994350000000     0.42512    
C20      C      0.931870000000     0.499440000000     0.995280000000     0.425338   
C21      C      0.433040000000     0.473930000000     0.000940000000     0.427617   
C22      C      0.563820000000     0.505240000000     0.000810000000     0.427597   
C23      C      0.482630000000     0.554970000000     0.999860000000     0.427443   
C24      C      0.514020000000     0.424130000000     0.001870000000     0.427872   
C25      C      0.653340000000     0.519550000000     0.965260000000    -0.0319284  
C26      C      0.836160000000     0.481480000000     0.008810000000    -0.0307931  
C27      C      0.881190000000     0.537640000000     0.982050000000    -0.00580187 
C28      C      0.873240000000     0.472240000000     0.996350000000    -0.00459471 
C29      C      0.762990000000     0.492990000000     0.970250000000    -0.0537031  
C30      C      0.732080000000     0.540530000000     0.016710000000    -0.0537986  
C31      C      0.784660000000     0.514400000000     0.991010000000     0.0603825  
C32      C      0.843020000000     0.542950000000     0.993880000000    -0.0306938  
C33      C      0.710460000000     0.519650000000     0.995380000000     0.0602471  
C34      C      0.657830000000     0.500360000000     0.025630000000    -0.0450999  
C35      C      0.726380000000     0.494920000000     0.972860000000    -0.0557965  
C36      C      0.619640000000     0.511130000000     0.033410000000     0.0434509  
C37      C      0.614990000000     0.530810000000     0.969940000000    -0.00426179 
C38      C      0.768740000000     0.537570000000     0.015140000000    -0.0556812  
C39      C      0.343660000000     0.459580000000     0.965310000000    -0.0319413  
C40      C      0.161080000000     0.499470000000     0.009360000000    -0.0308357  
C41      C      0.115980000000     0.445820000000     0.978030000000    -0.00582865 
C42      C      0.124140000000     0.509830000000     0.997330000000    -0.00459387 
C43      C      0.234650000000     0.489100000000     0.970050000000    -0.0538331  
C44      C      0.264300000000     0.439780000000     0.015520000000    -0.053758   
C45      C      0.212460000000     0.467390000000     0.989900000000     0.06061    
C46      C      0.153930000000     0.439300000000     0.989890000000    -0.0306844  
C47      C      0.286450000000     0.460910000000     0.995010000000     0.0602794  
C48      C      0.339070000000     0.479960000000     0.025320000000    -0.0450638  
C49      C      0.271200000000     0.486520000000     0.973010000000    -0.0557989  
C50      C      0.377100000000     0.468930000000     0.033480000000     0.0434357  
C51      C      0.381850000000     0.447960000000     0.970440000000    -0.00419383 
C52      C      0.227720000000     0.443330000000     0.013580000000    -0.0558246  
C53      C      0.445300000000     0.833140000000     0.982650000000    -0.0319012  
C54      C      0.488570000000     0.649310000000     0.021470000000    -0.0309418  
C55      C      0.454630000000     0.604940000000     0.969160000000    -0.00541264 
C56      C      0.477360000000     0.611740000000     0.031070000000    -0.00473264 
C57      C      0.449420000000     0.723970000000     0.011860000000    -0.0539912  
C58      C      0.494400000000     0.752320000000     0.961480000000    -0.0537659  
C59      C      0.468770000000     0.701190000000     0.990340000000     0.0609106  
C60      C      0.466130000000     0.642920000000     0.962290000000    -0.0306458  
C61      C      0.474260000000     0.775100000000     0.982280000000     0.0607162  
C62      C      0.507320000000     0.827950000000     0.995980000000    -0.0450598  
C63      C      0.452580000000     0.760540000000     0.008470000000    -0.0557006  
C64      C      0.515370000000     0.864810000000     0.981520000000     0.0438786  
C65      C      0.449700000000     0.870610000000     0.968500000000    -0.00415318 
C66      C      0.492360000000     0.715810000000     0.965870000000    -0.0558484  
C67      C      0.538500000000     0.145800000000     0.982880000000    -0.0319198  
C68      C      0.503930000000     0.331010000000     0.025200000000    -0.0308884  
C69      C      0.540940000000     0.372570000000     0.972680000000    -0.00535896 
C70      C      0.517510000000     0.367910000000     0.034410000000    -0.00481452 
C71      C      0.538690000000     0.253700000000     0.015450000000    -0.054137   
C72      C      0.491390000000     0.228310000000     0.965600000000    -0.0537624  
C73      C      0.520270000000     0.277690000000     0.994420000000     0.0609629  
C74      C      0.527050000000     0.335370000000     0.966010000000    -0.0306398  
C75      C      0.510880000000     0.204300000000     0.985610000000     0.060533   
C76      C      0.477140000000     0.151640000000     0.998870000000    -0.0450685  
C77      C      0.533610000000     0.217390000000     0.011690000000    -0.0557233  
C78      C      0.467910000000     0.115300000000     0.983670000000     0.0437027  
C79      C      0.532800000000     0.109040000000     0.967530000000    -0.00389375 
C80      C      0.495380000000     0.264630000000     0.970360000000    -0.0560546  
C81      C      0.517550000000     0.000710000000     0.822550000000    -0.0322412  
C82      C      0.484340000000     0.953010000000     0.640240000000    -0.0304817  
C83      C      0.490540000000     0.020350000000     0.603820000000    -0.00405246 
C84      C      0.471280000000     0.955830000000     0.602620000000    -0.00534367 
C85      C      0.465090000000     0.009410000000     0.715760000000    -0.0539161  
C86      C      0.509690000000     0.961200000000     0.748580000000    -0.053843   
C87      C      0.485150000000     0.986240000000     0.695340000000     0.061142   
C88      C      0.503490000000     0.013880000000     0.641150000000    -0.0309044  
C89      C      0.488480000000     0.983290000000     0.769000000000     0.0609294  
C90      C      0.455810000000     0.985230000000     0.824370000000    -0.0444346  
C91      C      0.467220000000     0.008590000000     0.752200000000    -0.0556827  
C92      C      0.458090000000     0.972910000000     0.862430000000     0.0424454  
C93      C      0.523580000000     0.988160000000     0.860090000000    -0.00244335 
C94      C      0.508720000000     0.963080000000     0.712120000000    -0.0560051  
C95      C      0.471780000000     0.013450000000     0.322590000000    -0.0319983  
C96      C      0.524940000000     0.983630000000     0.140630000000    -0.030645   
C97      C      0.458410000000     0.993170000000     0.103790000000    -0.00422169 
C98      C      0.522120000000     0.971620000000     0.102610000000    -0.00519747 
C99      C      0.468630000000     0.963350000000     0.215220000000    -0.0540809  
C100     C      0.514660000000     0.009490000000     0.249030000000    -0.0538728  
C101     C      0.491300000000     0.984440000000     0.195300000000     0.061212   
C102     C      0.465010000000     0.005020000000     0.141410000000    -0.0307279  
C103     C      0.493080000000     0.987290000000     0.268940000000     0.0609787  
C104     C      0.493840000000     0.953660000000     0.323620000000    -0.0444302  
C105     C      0.468910000000     0.965180000000     0.251680000000    -0.0559796  
C106     C      0.505680000000     0.956570000000     0.361750000000     0.0424641  
C107     C      0.482950000000     0.020220000000     0.360440000000    -0.00299655 
C108     C      0.513370000000     0.008700000000     0.212540000000    -0.0561255  
C109     C      0.025380000000     0.516560000000     0.652780000000    -0.0318541  
C110     C      0.979720000000     0.473870000000     0.834770000000    -0.0309752  
C111     C      0.019230000000     0.525360000000     0.875670000000    -0.00562208 
C112     C      0.992300000000     0.463950000000     0.871580000000    -0.00487034 
C113     C      0.018490000000     0.480910000000     0.758840000000    -0.0537634  
C114     C      0.973730000000     0.532270000000     0.731300000000    -0.0538659  
C115     C      0.999520000000     0.502680000000     0.781690000000     0.060587   
C116     C      0.005880000000     0.531950000000     0.838550000000    -0.0304033  
C117     C      0.993950000000     0.511610000000     0.708510000000     0.0604518  
C118     C      0.964960000000     0.496040000000     0.654160000000    -0.0450076  
C119     C      0.015310000000     0.484770000000     0.722610000000    -0.0558657  
C120     C      0.957780000000     0.509910000000     0.617050000000     0.0435088  
C121     C      0.021370000000     0.531040000000     0.615670000000    -0.00389143 
C122     C      0.975900000000     0.527510000000     0.767510000000    -0.0559613  
C123     C      0.970780000000     0.468950000000     0.337370000000    -0.032212   
C124     C      0.004160000000     0.518780000000     0.154590000000    -0.0304561  
C125     C      0.995260000000     0.453030000000     0.115970000000    -0.00496802 
C126     C      0.017630000000     0.516380000000     0.117020000000    -0.00550043 
C127     C      0.022220000000     0.464240000000     0.230100000000    -0.0541011  
C128     C      0.972180000000     0.508200000000     0.261020000000    -0.0535227  
C129     C      0.000320000000     0.484760000000     0.208770000000     0.0610167  
C130     C      0.982310000000     0.458810000000     0.153520000000    -0.0308108  
C131     C      0.995380000000     0.489170000000     0.282360000000     0.0603266  
C132     C      0.028280000000     0.496060000000     0.337110000000    -0.0440618  
C133     C      0.019450000000     0.465840000000     0.266540000000    -0.0556306  
C134     C      0.024160000000     0.510010000000     0.374500000000     0.0416359  
C135     C      0.962890000000     0.481860000000     0.374550000000    -0.00316451 
C136     C      0.974070000000     0.505590000000     0.224590000000    -0.0563742  
C137     C      0.143570000000     0.969420000000     0.456960000000    -0.0322681  
C138     C      0.327830000000     0.012090000000     0.491610000000    -0.0302729  
C139     C      0.366600000000     0.946800000000     0.479860000000    -0.00414177 
C140     C      0.365390000000     0.008940000000     0.505070000000    -0.00519023 
C141     C      0.252110000000     0.956740000000     0.506560000000    -0.0542646  
C142     C      0.221320000000     0.004460000000     0.460110000000    -0.0537751  
C143     C      0.273560000000     0.978350000000     0.485920000000     0.0614615  
C144     C      0.328970000000     0.953080000000     0.467050000000    -0.0309582  
C145     C      0.199900000000     0.984540000000     0.482410000000     0.0609424  
C146     C      0.145860000000     0.989660000000     0.516960000000    -0.044548   
C147     C      0.215550000000     0.959190000000     0.504400000000    -0.055782   
C148     C      0.108970000000     0.005570000000     0.515160000000     0.0424511  
C149     C      0.106870000000     0.984930000000     0.451340000000    -0.00259061 
C150     C      0.257820000000     0.000940000000     0.461210000000    -0.0563647  
C151     C      0.648320000000     0.971160000000     0.496050000000    -0.0321599  
C152     C      0.829900000000     0.021270000000     0.456010000000    -0.0304759  
C153     C      0.864720000000     0.007630000000     0.522570000000    -0.00376514 
C154     C      0.867060000000     0.035130000000     0.462120000000    -0.00491683 
C155     C      0.750640000000     0.030350000000     0.508300000000    -0.0542827  
C156     C      0.723810000000     0.984120000000     0.458080000000    -0.0538208  
C157     C      0.773780000000     0.012490000000     0.485990000000     0.0617838  
C158     C      0.827910000000     0.994200000000     0.513630000000    -0.031001   
C159     C      0.700630000000     0.003140000000     0.479370000000     0.0612165  
C160     C      0.643060000000     0.031750000000     0.476670000000    -0.0444633  
C161     C      0.714410000000     0.025260000000     0.505610000000    -0.0558831  
C162     C      0.605740000000     0.026000000000     0.462950000000     0.042886   
C163     C      0.611600000000     0.961780000000     0.482660000000    -0.00282925 
C164     C      0.760100000000     0.988100000000     0.461750000000    -0.0563889  
C165     C      0.985440000000     0.839050000000     0.503700000000    -0.0323092  
C166     C      0.941050000000     0.654650000000     0.474000000000    -0.0307114  
C167     C      0.011920000000     0.626200000000     0.481430000000    -0.00423805 
C168     C      0.947910000000     0.616020000000     0.464510000000    -0.00537856 
C169     C      0.988470000000     0.734900000000     0.448310000000    -0.0541542  
C170     C      0.942750000000     0.766230000000     0.496230000000    -0.0538226  
C171     C      0.968120000000     0.713440000000     0.470250000000     0.0611596  
C172     C      0.001600000000     0.663770000000     0.491380000000    -0.0305825  
C173     C      0.962900000000     0.787670000000     0.474090000000     0.0606671  
C174     C      0.962590000000     0.845400000000     0.444900000000    -0.0445231  
C175     C      0.986540000000     0.771590000000     0.450600000000    -0.0558497  
C176     C      0.952840000000     0.884180000000     0.450940000000     0.0421969  
C177     C      0.975740000000     0.876940000000     0.513300000000    -0.00276719 
C178     C      0.945760000000     0.729530000000     0.494930000000    -0.0561394  
C179     C      0.019840000000     0.160480000000     0.470470000000    -0.0322801  
C180     C      0.975890000000     0.342640000000     0.515350000000    -0.0305595  
C181     C      0.040450000000     0.382920000000     0.505580000000    -0.00447975 
C182     C      0.978560000000     0.380000000000     0.529800000000    -0.00524129 
C183     C      0.029890000000     0.265930000000     0.528070000000    -0.0542288  
C184     C      0.985300000000     0.238050000000     0.477030000000    -0.0537585  
C185     C      0.009840000000     0.288780000000     0.507310000000     0.0614009  
C186     C      0.035270000000     0.345330000000     0.491680000000    -0.0310889  
C187     C      0.003670000000     0.215130000000     0.499220000000     0.0608751  
C188     C      0.997410000000     0.158400000000     0.529630000000    -0.0444288  
C189     C      0.027450000000     0.229420000000     0.523700000000    -0.0556136  
C190     C      0.981640000000     0.121610000000     0.524570000000     0.0422052  
C191     C      0.004590000000     0.124220000000     0.461560000000    -0.00239477 
C192     C      0.988840000000     0.274540000000     0.480450000000    -0.0564967  
H1       H      0.784310000000     0.553720000000     0.032520000000     0.0402486  
H2       H      0.665500000000     0.536370000000     0.944700000000     0.0345671  
H3       H      0.673510000000     0.502210000000     0.050160000000     0.0396329  
H4       H      0.881990000000     0.538240000000     0.952990000000     0.0372787  
H5       H      0.614200000000     0.559890000000     0.973570000000     0.036011   
H6       H      0.819440000000     0.457570000000     0.005810000000     0.033575   
H7       H      0.831600000000     0.565360000000     0.978930000000     0.0344303  
H8       H      0.884510000000     0.452280000000     0.014480000000     0.0392267  
H9       H      0.608390000000     0.490850000000     0.051210000000     0.0326999  
H10      H      0.720370000000     0.559010000000     0.034890000000     0.0435608  
H11      H      0.600420000000     0.524810000000     0.945460000000     0.0408155  
H12      H      0.774660000000     0.474350000000     0.952200000000     0.0434305  
H13      H      0.653580000000     0.491700000000     0.956100000000     0.0371908  
H14      H      0.897140000000     0.560300000000     0.991490000000     0.0406554  
H15      H      0.836600000000     0.488620000000     0.037080000000     0.0380461  
H16      H      0.843090000000     0.550020000000     0.022140000000     0.0362623  
H17      H      0.710830000000     0.477300000000     0.956930000000     0.0402691  
H18      H      0.658540000000     0.472320000000     0.016970000000     0.0412907  
H19      H      0.871460000000     0.459880000000     0.970030000000     0.0389267  
H20      H      0.636380000000     0.577560000000     0.037850000000     0.0372661  
H21      H      0.211670000000     0.426970000000     0.030330000000     0.0403746  
H22      H      0.331410000000     0.442500000000     0.945020000000     0.0346071  
H23      H      0.323230000000     0.478690000000     0.049790000000     0.0397444  
H24      H      0.115590000000     0.447710000000     0.949010000000     0.0372471  
H25      H      0.382260000000     0.418970000000     0.974700000000     0.0359146  
H26      H      0.177980000000     0.523410000000     0.008160000000     0.0337578  
H27      H      0.165380000000     0.417980000000     0.973460000000     0.0345412  
H28      H      0.112860000000     0.528500000000     0.016770000000     0.0392227  
H29      H      0.388460000000     0.489400000000     0.050990000000     0.0328151  
H30      H      0.275530000000     0.420660000000     0.033350000000     0.0435937  
H31      H      0.396600000000     0.453250000000     0.945910000000     0.0407804  
H32      H      0.223460000000     0.508450000000     0.952440000000     0.0436592  
H33      H      0.343790000000     0.487230000000     0.955590000000     0.0372475  
H34      H      0.099800000000     0.422540000000     0.985330000000     0.040767   
H35      H      0.160370000000     0.490310000000     0.037040000000     0.038111   
H36      H      0.153430000000     0.430130000000     0.017540000000     0.0364102  
H37      H      0.287250000000     0.504360000000     0.957820000000     0.0403525  
H38      H      0.338720000000     0.507850000000     0.016180000000     0.0412611  
H39      H      0.126180000000     0.524040000000     0.971970000000     0.038688   
H40      H      0.359480000000     0.402810000000     0.039090000000     0.0371814  
H41      H      0.508870000000     0.699310000000     0.949710000000     0.0405211  
H42      H      0.422710000000     0.820530000000     0.969020000000     0.0347768  
H43      H      0.531200000000     0.811150000000     0.993370000000     0.0395631  
H44      H      0.426000000000     0.604910000000     0.975040000000     0.0359808  
H45      H      0.449150000000     0.869600000000     0.939450000000     0.0377382  
H46      H      0.487690000000     0.665660000000     0.045640000000     0.034167   
H47      H      0.448380000000     0.654620000000     0.942280000000     0.0345504  
H48      H      0.497050000000     0.600570000000     0.049500000000     0.040943   
H49      H      0.535230000000     0.877140000000     0.999040000000     0.0318573  
H50      H      0.511980000000     0.763040000000     0.941900000000     0.0438773  
H51      H      0.426680000000     0.886550000000     0.976940000000     0.0414028  
H52      H      0.431900000000     0.713250000000     0.031490000000     0.0436473  
H53      H      0.439080000000     0.834850000000     0.011050000000     0.036805   
H54      H      0.458530000000     0.589270000000     0.944900000000     0.0410971  
H55      H      0.516130000000     0.649230000000     0.011610000000     0.0391819  
H56      H      0.493340000000     0.642310000000     0.951600000000     0.0376509  
H57      H      0.437600000000     0.777090000000     0.026000000000     0.0403426  
H58      H      0.501070000000     0.829770000000     0.024390000000     0.0411138  
H59      H      0.451620000000     0.612890000000     0.044810000000     0.0378066  
H60      H      0.511340000000     0.846990000000     0.915910000000     0.0378272  
H61      H      0.479500000000     0.282180000000     0.954680000000     0.0405807  
H62      H      0.560780000000     0.158500000000     0.968830000000     0.0344474  
H63      H      0.453500000000     0.168930000000     0.997620000000     0.0394843  
H64      H      0.569390000000     0.370720000000     0.979120000000     0.0357922  
H65      H      0.531810000000     0.111270000000     0.938550000000     0.035957   
H66      H      0.503780000000     0.314880000000     0.049530000000     0.0341495  
H67      H      0.544180000000     0.322360000000     0.946260000000     0.0345175  
H68      H      0.498660000000     0.380460000000     0.052830000000     0.0410995  
H69      H      0.448620000000     0.102710000000     0.001640000000     0.0317624  
H70      H      0.473020000000     0.218740000000     0.946140000000     0.0436107  
H71      H      0.556000000000     0.092490000000     0.974080000000     0.0408465  
H72      H      0.557130000000     0.263280000000     0.034820000000     0.0436164  
H73      H      0.545810000000     0.142880000000     0.010920000000     0.0369415  
H74      H      0.538560000000     0.388220000000     0.948220000000     0.0410422  
H75      H      0.476440000000     0.332750000000     0.015300000000     0.0392686  
H76      H      0.500040000000     0.337660000000     0.955070000000     0.0378975  
H77      H      0.548090000000     0.199840000000     0.028670000000     0.0402514  
H78      H      0.484410000000     0.148870000000     0.026960000000     0.040985   
H79      H      0.543220000000     0.365260000000     0.048010000000     0.0375312  
H80      H      0.468400000000     0.137670000000     0.919330000000     0.0372965  
H81      H      0.525720000000     0.945750000000     0.697380000000     0.0402825  
H82      H      0.542650000000     0.997560000000     0.807900000000     0.033823   
H83      H      0.434340000000     0.970750000000     0.810740000000     0.0405225  
H84      H      0.464830000000     0.034280000000     0.604940000000     0.038514   
H85      H      0.535910000000     0.961580000000     0.859430000000     0.0386821  
H86      H      0.468360000000     0.932740000000     0.654040000000     0.0346018  
H87      H      0.502190000000     0.039310000000     0.655640000000     0.0336338  
H88      H      0.477780000000     0.930890000000     0.588770000000     0.0412174  
H89      H      0.434080000000     0.982430000000     0.876060000000     0.0343258  
H90      H      0.526960000000     0.942300000000     0.761080000000     0.0433077  
H91      H      0.542470000000     0.006400000000     0.872990000000     0.0383875  
H92      H      0.447590000000     0.028090000000     0.703290000000     0.0437254  
H93      H      0.510450000000     0.029210000000     0.822400000000     0.0382281  
H94      H      0.509550000000     0.038020000000     0.590320000000     0.0389481  
H95      H      0.512220000000     0.944090000000     0.639730000000     0.0366058  
H96      H      0.531420000000     0.005020000000     0.640800000000     0.038055   
H97      H      0.451530000000     0.027120000000     0.766940000000     0.0404766  
H98      H      0.448810000000     0.013740000000     0.824450000000     0.0398273  
H99      H      0.442130000000     0.958180000000     0.602960000000     0.0368742  
H100     H      0.486550000000     0.912140000000     0.848550000000     0.0384674  
H101     H      0.530160000000     0.026480000000     0.198090000000     0.0404096  
H102     H      0.472320000000     0.039060000000     0.308360000000     0.033999   
H103     H      0.510500000000     0.933990000000     0.309700000000     0.0403021  
H104     H      0.443400000000     0.968000000000     0.104210000000     0.0389895  
H105     H      0.507590000000     0.036010000000     0.360390000000     0.0389733  
H106     H      0.544400000000     0.966550000000     0.154250000000     0.0346468  
H107     H      0.439500000000     0.004370000000     0.155670000000     0.0337632  
H108     H      0.547240000000     0.977940000000     0.089110000000     0.0410087  
H109     H      0.498590000000     0.931420000000     0.374930000000     0.0338092  
H110     H      0.532650000000     0.027400000000     0.261930000000     0.0436132  
H111     H      0.462300000000     0.036340000000     0.373440000000     0.0391347  
H112     H      0.450710000000     0.945370000000     0.202330000000     0.0438171  
H113     H      0.444340000000     0.003200000000     0.321850000000     0.0376534  
H114     H      0.441730000000     0.013270000000     0.090610000000     0.0392184  
H115     H      0.534860000000     0.011240000000     0.140960000000     0.0365682  
H116     H      0.474920000000     0.032670000000     0.141770000000     0.0378522  
H117     H      0.450820000000     0.948730000000     0.266140000000     0.0402885  
H118     H      0.466310000000     0.943680000000     0.323330000000     0.0390373  
H119     H      0.519110000000     0.942460000000     0.102140000000     0.036946   
H120     H      0.563190000000     0.990340000000     0.346830000000     0.0389132  
H121     H      0.959710000000     0.543810000000     0.784200000000     0.04043    
H122     H      0.045440000000     0.532610000000     0.666770000000     0.0346835  
H123     H      0.939960000000     0.496130000000     0.669340000000     0.0396018  
H124     H      0.047790000000     0.519220000000     0.874400000000     0.0369602  
H125     H      0.017330000000     0.560030000000     0.617280000000     0.0359197  
H126     H      0.977980000000     0.449290000000     0.818950000000     0.0339872  
H127     H      0.023890000000     0.550960000000     0.825480000000     0.0345959  
H128     H      0.971570000000     0.447840000000     0.884460000000     0.039234   
H129     H      0.940660000000     0.490310000000     0.603710000000     0.0320243  
H130     H      0.956320000000     0.552280000000     0.720890000000     0.0436346  
H131     H      0.046400000000     0.526620000000     0.601330000000     0.040871   
H132     H      0.035990000000     0.460980000000     0.769250000000     0.0438769  
H133     H      0.035100000000     0.488940000000     0.650970000000     0.0373953  
H134     H      0.016360000000     0.550160000000     0.890920000000     0.0411761  
H135     H      0.952960000000     0.485750000000     0.836120000000     0.0381403  
H136     H      0.979310000000     0.544120000000     0.840250000000     0.0367229  
H137     H      0.030130000000     0.467260000000     0.705880000000     0.0405296  
H138     H      0.974200000000     0.468200000000     0.652710000000     0.0408583  
H139     H      0.016220000000     0.447260000000     0.869260000000     0.0385122  
H140     H      0.951590000000     0.574650000000     0.638870000000     0.0371669  
H141     H      0.955720000000     0.520650000000     0.209000000000     0.0405011  
H142     H      0.945380000000     0.466440000000     0.323110000000     0.0339355  
H143     H      0.046520000000     0.513470000000     0.322230000000     0.0403847  
H144     H      0.020360000000     0.438030000000     0.116800000000     0.0387633  
H145     H      0.944930000000     0.504950000000     0.372980000000     0.0381595  
H146     H      0.020880000000     0.537870000000     0.169150000000     0.0347554  
H147     H      0.982540000000     0.432920000000     0.167250000000     0.0338442  
H148     H      0.012870000000     0.542120000000     0.103930000000     0.0411593  
H149     H      0.049610000000     0.505780000000     0.388200000000     0.0337882  
H150     H      0.952810000000     0.525480000000     0.272750000000     0.0433901  
H151     H      0.948700000000     0.460650000000     0.388880000000     0.038234   
H152     H      0.041860000000     0.447280000000     0.218370000000     0.0439284  
H153     H      0.983260000000     0.442390000000     0.338300000000     0.0374566  
H154     H      0.975650000000     0.436600000000     0.101810000000     0.0390259  
H155     H      0.976780000000     0.529120000000     0.153990000000     0.0369016  
H156     H      0.954740000000     0.468730000000     0.153230000000     0.0378102  
H157     H      0.036820000000     0.449660000000     0.282130000000     0.0402431  
H158     H      0.040530000000     0.469430000000     0.338480000000     0.038965   
H159     H      0.046570000000     0.512230000000     0.117710000000     0.0367085  
H160     H      0.984780000000     0.563580000000     0.358320000000     0.0377871  
H161     H      0.273540000000     0.016840000000     0.443720000000     0.0404292  
H162     H      0.157460000000     0.969230000000     0.431330000000     0.0337328  
H163     H      0.161850000000     0.004220000000     0.536630000000     0.0404499  
H164     H      0.365660000000     0.931040000000     0.504370000000     0.0382533  
H165     H      0.109360000000     0.010060000000     0.436560000000     0.0380699  
H166     H      0.313110000000     0.030350000000     0.509080000000     0.0347703  
H167     H      0.315160000000     0.927220000000     0.466150000000     0.0338757  
H168     H      0.378520000000     0.034960000000     0.502140000000     0.0413646  
H169     H      0.095460000000     0.999160000000     0.540160000000     0.0339893  
H170     H      0.209620000000     0.023270000000     0.442250000000     0.0431484  
H171     H      0.091350000000     0.966370000000     0.434910000000     0.038294   
H172     H      0.263840000000     0.938430000000     0.524900000000     0.0439675  
H173     H      0.141520000000     0.941670000000     0.466310000000     0.0377646  
H174     H      0.380910000000     0.931040000000     0.459870000000     0.0390246  
H175     H      0.328680000000     0.023750000000     0.464900000000     0.0371579  
H176     H      0.329360000000     0.964220000000     0.440090000000     0.0379972  
H177     H      0.199820000000     0.942250000000     0.520900000000     0.0403121  
H178     H      0.143450000000     0.961870000000     0.526040000000     0.0392637  
H179     H      0.364510000000     0.002820000000     0.533500000000     0.036501   
H180     H      0.128430000000     0.062380000000     0.482430000000     0.0377988  
H181     H      0.777170000000     0.972610000000     0.445180000000     0.0410703  
H182     H      0.664820000000     0.946940000000     0.495020000000     0.0341491  
H183     H      0.655990000000     0.053250000000     0.461550000000     0.0403686  
H184     H      0.862280000000     0.032220000000     0.538220000000     0.0386454  
H185     H      0.614160000000     0.947850000000     0.457200000000     0.0385659  
H186     H      0.816040000000     0.039540000000     0.437860000000     0.0348151  
H187     H      0.812620000000     0.992100000000     0.538370000000     0.0340654  
H188     H      0.881830000000     0.033940000000     0.437070000000     0.0416426  
H189     H      0.590130000000     0.049760000000     0.469980000000     0.0340459  
H190     H      0.713620000000     0.966170000000     0.438510000000     0.0437348  
H191     H      0.599220000000     0.943170000000     0.501480000000     0.0394371  
H192     H      0.760820000000     0.048310000000     0.527860000000     0.0440349  
H193     H      0.646830000000     0.979970000000     0.523810000000     0.0379755  
H194     H      0.878120000000     0.987520000000     0.539040000000     0.0403688  
H195     H      0.831930000000     0.994940000000     0.443320000000     0.038272   
H196     H      0.829620000000     0.967430000000     0.501730000000     0.0393119  
H197     H      0.697390000000     0.039220000000     0.523520000000     0.0403687  
H198     H      0.641150000000     0.040520000000     0.504390000000     0.0393762  
H199     H      0.865340000000     0.063330000000     0.469890000000     0.0368076  
H200     H      0.625830000000     0.995170000000     0.405600000000     0.0388059  
H201     H      0.930610000000     0.714040000000     0.513260000000     0.0405201  
H202     H      0.984640000000     0.822930000000     0.528040000000     0.0339582  
H203     H      0.944780000000     0.833730000000     0.424880000000     0.0402614  
H204     H      0.024580000000     0.626580000000     0.455220000000     0.0394532  
H205     H      0.950720000000     0.876720000000     0.528340000000     0.0375637  
H206     H      0.919300000000     0.664760000000     0.457320000000     0.0346838  
H207     H      0.025210000000     0.680850000000     0.488270000000     0.0338718  
H208     H      0.924860000000     0.600030000000     0.472770000000     0.041342   
H209     H      0.959770000000     0.898930000000     0.426770000000     0.0339221  
H210     H      0.925170000000     0.778140000000     0.515120000000     0.0432925  
H211     H      0.996580000000     0.887690000000     0.530720000000     0.0392388  
H212     H      0.006570000000     0.723010000000     0.429900000000     0.0440442  
H213     H      0.012760000000     0.838110000000     0.493210000000     0.0383437  
H214     H      0.031750000000     0.616640000000     0.500600000000     0.0402052  
H215     H      0.932500000000     0.655750000000     0.501820000000     0.0371163  
H216     H      0.993350000000     0.664770000000     0.519330000000     0.0384295  
H217     H      0.003550000000     0.787090000000     0.434000000000     0.0404029  
H218     H      0.989820000000     0.844640000000     0.434270000000     0.0393551  
H219     H      0.949940000000     0.613850000000     0.435580000000     0.037149   
H220     H      0.895510000000     0.868860000000     0.484740000000     0.0377655  
H221     H      0.974220000000     0.291400000000     0.462900000000     0.0406009  
H222     H      0.021070000000     0.176250000000     0.445940000000     0.0338046  
H223     H      0.982170000000     0.172960000000     0.549880000000     0.0404395  
H224     H      0.054890000000     0.381590000000     0.530830000000     0.0377605  
H225     H      0.980190000000     0.127900000000     0.445950000000     0.037866   
H226     H      0.957800000000     0.327210000000     0.532350000000     0.0348819  
H227     H      0.061320000000     0.331980000000     0.491160000000     0.0340997  
H228     H      0.952330000000     0.392780000000     0.528010000000     0.0411992  
H229     H      0.987250000000     0.106170000000     0.548660000000     0.0344292  
H230     H      0.967720000000     0.227520000000     0.457350000000     0.0431858  
H231     H      0.023760000000     0.109840000000     0.444830000000     0.038499   
H232     H      0.046980000000     0.276500000000     0.548150000000     0.0440106  
H233     H      0.047120000000     0.157640000000     0.480710000000     0.0383274  
H234     H      0.056890000000     0.397920000000     0.486670000000     0.0393296  
H235     H      0.964340000000     0.344110000000     0.488650000000     0.0380769  
H236     H      0.024920000000     0.346280000000     0.464450000000     0.0384637  
H237     H      0.043200000000     0.212620000000     0.540320000000     0.0405514  
H238     H      0.024780000000     0.155290000000     0.539520000000     0.0398312  
H239     H      0.985550000000     0.378380000000     0.557990000000     0.0357027  
H240     H      0.926040000000     0.142870000000     0.491170000000     0.0378606  
N1       N      0.598810000000     0.513930000000     0.000880000000    -0.176397   
N2       N      0.672640000000     0.523420000000     0.998470000000    -0.111197   
N3       N      0.822480000000     0.510650000000     0.987610000000    -0.112773   
N4       N      0.896110000000     0.503670000000     0.993960000000    -0.171416   
N5       N      0.398040000000     0.465340000000     0.001090000000    -0.176511   
N6       N      0.324160000000     0.456600000000     0.998480000000    -0.111251   
N7       N      0.174770000000     0.471820000000     0.986260000000    -0.112869   
N8       N      0.101150000000     0.478770000000     0.992560000000    -0.171477   
N9       N      0.483300000000     0.886800000000     0.979600000000    -0.176985   
N10      N      0.477650000000     0.812700000000     0.976650000000    -0.110934   
N11      N      0.464470000000     0.663530000000     0.994940000000    -0.113284   
N12      N      0.473510000000     0.589850000000     0.999400000000    -0.172207   
N13      N      0.499550000000     0.092960000000     0.979760000000    -0.177082   
N14      N      0.506340000000     0.167010000000     0.978920000000    -0.111136   
N15      N      0.527080000000     0.314980000000     0.998850000000    -0.113413   
N16      N      0.522520000000     0.389090000000     0.002440000000    -0.172249   
N17      N      0.490290000000     0.985990000000     0.879870000000    -0.17755    
N18      N      0.489640000000     0.979390000000     0.806600000000    -0.111008   
N19      N      0.480910000000     0.987380000000     0.657760000000    -0.113047   
N20      N      0.485880000000     0.986980000000     0.584460000000    -0.172578   
N21      N      0.489380000000     0.987060000000     0.379750000000    -0.177136   
N22      N      0.496260000000     0.988340000000     0.306580000000    -0.111149   
N23      N      0.490360000000     0.980970000000     0.157670000000    -0.113097   
N24      N      0.491610000000     0.987480000000     0.084530000000    -0.172557   
N25      N      0.990890000000     0.515250000000     0.597460000000    -0.176806   
N26      N      0.991470000000     0.518260000000     0.671310000000    -0.111341   
N27      N      0.004840000000     0.498550000000     0.818970000000    -0.113011   
N28      N      0.001010000000     0.495450000000     0.892600000000    -0.171736   
N29      N      0.995070000000     0.492500000000     0.393540000000    -0.176754   
N30      N      0.993760000000     0.494460000000     0.319820000000    -0.111053   
N31      N      0.005670000000     0.483840000000     0.171290000000    -0.11316    
N32      N      0.001450000000     0.486790000000     0.097670000000    -0.171573   
N33      N      0.088820000000     0.992140000000     0.484830000000    -0.177794   
N34      N      0.162550000000     0.991310000000     0.482290000000    -0.111153   
N35      N      0.311110000000     0.977100000000     0.491310000000    -0.113367   
N36      N      0.384720000000     0.980440000000     0.487090000000    -0.172947   
N37      N      0.589740000000     0.993580000000     0.477540000000    -0.177562   
N38      N      0.663330000000     0.998850000000     0.473820000000    -0.111216   
N39      N      0.810980000000     0.019100000000     0.489560000000    -0.113326   
N40      N      0.884710000000     0.015440000000     0.490430000000    -0.172631   
N41      N      0.971070000000     0.899020000000     0.481810000000    -0.177253   
N42      N      0.960210000000     0.825530000000     0.477930000000    -0.111197   
N43      N      0.973120000000     0.675660000000     0.468350000000    -0.113086   
N44      N      0.980950000000     0.602760000000     0.480060000000    -0.171898   
N45      N      0.995940000000     0.103640000000     0.493270000000    -0.177117   
N46      N      0.997050000000     0.177700000000     0.496250000000    -0.111051   
N47      N      0.010970000000     0.326140000000     0.514710000000    -0.113441   
N48      N      0.006200000000     0.400150000000     0.511510000000    -0.172649   
Ni1      Ni     0.985920000000     0.002940000000     0.456370000000     0.996633   
Ni2      Ni     0.986970000000     0.999080000000     0.518360000000     1.00546    
Ni3      Ni     0.962360000000     0.497250000000     0.495550000000     0.99503    
Ni4      Ni     0.024360000000     0.505500000000     0.495900000000     0.999496   
Ni5      Ni     0.489140000000     0.955660000000     0.482100000000     1.00051    
Ni6      Ni     0.485260000000     0.018200000000     0.482120000000     1.00339    
Ni7      Ni     0.522510000000     0.987400000000     0.981900000000     1.00107    
Ni8      Ni     0.460110000000     0.992340000000     0.982370000000     1.00221    
Ni9      Ni     0.994630000000     0.460120000000     0.993830000000     0.988934   
Ni10     Ni     0.002660000000     0.522260000000     0.996440000000     0.995801   
Ni11     Ni     0.498350000000     0.490040000000     0.031910000000     0.995638   
Ni12     Ni     0.498510000000     0.489110000000     0.969820000000     0.991497   
O1       O      0.994900000000     0.052440000000     0.461310000000    -0.450273   
O2       O      0.976750000000     0.953240000000     0.455690000000    -0.449804   
O3       O      0.936520000000     0.011940000000     0.460010000000    -0.451026   
O4       O      0.035460000000     0.993950000000     0.457010000000    -0.451663   
O5       O      0.037020000000     0.996230000000     0.515110000000    -0.453287   
O6       O      0.936840000000     0.002500000000     0.517420000000    -0.452588   
O7       O      0.983510000000     0.948960000000     0.513300000000    -0.452286   
O8       O      0.990020000000     0.049440000000     0.519200000000    -0.450659   
O9       O      0.970710000000     0.448300000000     0.504000000000    -0.452194   
O10      O      0.958160000000     0.547060000000     0.487220000000    -0.448491   
O11      O      0.965740000000     0.489560000000     0.446000000000    -0.448852   
O12      O      0.963100000000     0.505140000000     0.545090000000    -0.448028   
O13      O      0.021280000000     0.510790000000     0.545710000000    -0.450557   
O14      O      0.023190000000     0.500500000000     0.446060000000    -0.449635   
O15      O      0.016000000000     0.554870000000     0.490720000000    -0.451687   
O16      O      0.028690000000     0.455290000000     0.500960000000    -0.450348   
O17      O      0.539240000000     0.961050000000     0.483760000000    -0.450664   
O18      O      0.438790000000     0.954590000000     0.480350000000    -0.451217   
O19      O      0.491040000000     0.957870000000     0.432210000000    -0.45191    
O20      O      0.486950000000     0.957680000000     0.532040000000    -0.452749   
O21      O      0.488740000000     0.016300000000     0.532080000000    -0.451466   
O22      O      0.482200000000     0.015830000000     0.432100000000    -0.45059    
O23      O      0.435450000000     0.012880000000     0.485810000000    -0.454181   
O24      O      0.535290000000     0.019310000000     0.478530000000    -0.453472   
O25      O      0.520170000000     0.987760000000     0.931880000000    -0.451572   
O26      O      0.520690000000     0.987100000000     0.031960000000    -0.452136   
O27      O      0.516480000000     0.937260000000     0.982000000000    -0.449857   
O28      O      0.524450000000     0.037860000000     0.981520000000    -0.452146   
O29      O      0.466180000000     0.042560000000     0.982270000000    -0.448946   
O30      O      0.458190000000     0.941830000000     0.982190000000    -0.45065    
O31      O      0.462470000000     0.992590000000     0.032330000000    -0.452906   
O32      O      0.461790000000     0.991380000000     0.932400000000    -0.451718   
O33      O      0.995930000000     0.459900000000     0.044080000000    -0.447482   
O34      O      0.993540000000     0.464530000000     0.943770000000    -0.447518   
O35      O      0.045040000000     0.456010000000     0.992100000000    -0.447114   
O36      O      0.944990000000     0.468300000000     0.995570000000    -0.44925    
O37      O      0.952210000000     0.526480000000     0.995220000000    -0.447443   
O38      O      0.052320000000     0.513950000000     0.997300000000    -0.449637   
O39      O      0.003860000000     0.522180000000     0.946360000000    -0.450469   
O40      O      0.001810000000     0.518200000000     0.046370000000    -0.450257   
O41      O      0.448760000000     0.480930000000     0.029820000000    -0.447124   
O42      O      0.547970000000     0.499080000000     0.029800000000    -0.446966   
O43      O      0.489310000000     0.539700000000     0.029050000000    -0.448965   
O44      O      0.507340000000     0.440310000000     0.030560000000    -0.449204   
O45      O      0.512940000000     0.440750000000     0.972690000000    -0.449863   
O46      O      0.484020000000     0.537500000000     0.971180000000    -0.449851   
O47      O      0.546860000000     0.503600000000     0.971850000000    -0.448548   
O48      O      0.450150000000     0.474700000000     0.972030000000    -0.448596   
S1       S      0.618480000000     0.552280000000     0.056260000000    -0.0433062  
S2       S      0.377730000000     0.428180000000     0.057030000000    -0.0436062  
S3       S      0.534760000000     0.861580000000     0.938990000000    -0.0412657  
S4       S      0.446790000000     0.120120000000     0.942130000000    -0.0412854  
S5       S      0.457290000000     0.925770000000     0.864500000000    -0.0448613  
S6       S      0.552500000000     0.960430000000     0.363910000000    -0.0419224  
S7       S      0.933870000000     0.550490000000     0.618860000000    -0.0424675  
S8       S      0.016520000000     0.556570000000     0.373790000000    -0.0421945  
S9       S      0.111600000000     0.052610000000     0.512610000000    -0.0431131  
S10      S      0.606010000000     0.023360000000     0.416260000000    -0.0437344  
S11      S      0.906370000000     0.888540000000     0.456690000000    -0.0446813  
S12      S      0.934830000000     0.124510000000     0.520780000000    -0.0429077  


