data_structure

_audit_creation_method RASPA-1.0
_audit_creation_date 2023-5-23
_audit_author_name 'Poobodin Mano'

_cell_length_a    43.3677
_cell_length_b    43.2408
_cell_length_c    26.8632
_cell_angle_alpha 90
_cell_angle_beta  90
_cell_angle_gamma 90
_cell_volume      50375.3

_symmetry_cell_setting          triclinic
_symmetry_space_group_name_Hall 'P 1'
_symmetry_space_group_name_H-M  'P 1'
_symmetry_Int_Tables_number     1

_symmetry_equiv_pos_as_xyz 'x,y,z'

loop_
_atom_site_label
_atom_site_type_symbol
_atom_site_fract_x
_atom_site_fract_y
_atom_site_fract_z
_atom_site_charge
C1       C      0.303350000000     0.009780000000     0.041000000000     0.442236   
C2       C      0.414950000000     0.998330000000     0.097540000000     0.440637   
C3       C      0.373920000000     0.988450000000     0.981260000000     0.440278   
C4       C      0.343940000000     0.019750000000     0.157580000000     0.444078   
C5       C      0.245970000000     0.993500000000     0.559310000000     0.440907   
C6       C      0.356250000000     0.010440000000     0.618770000000     0.442744   
C7       C      0.316330000000     0.018840000000     0.501420000000     0.443957   
C8       C      0.286310000000     0.985200000000     0.676590000000     0.440273   
C9       C      0.005820000000     0.724340000000     0.864060000000     0.437655   
C10      C      0.033040000000     0.696760000000     0.043240000000     0.441702   
C11      C      0.022870000000     0.653930000000     0.928760000000     0.438965   
C12      C      0.016200000000     0.767480000000     0.978370000000     0.439454   
C13      C      0.036780000000     0.656960000000     0.391500000000     0.441663   
C14      C      0.017140000000     0.625670000000     0.571660000000     0.438596   
C15      C      0.042040000000     0.585750000000     0.460460000000     0.442246   
C16      C      0.011710000000     0.696430000000     0.503470000000     0.438346   
C17      C      0.671610000000     0.002790000000     0.030690000000     0.44552    
C18      C      0.697470000000     0.039430000000     0.206000000000     0.44177    
C19      C      0.740370000000     0.029900000000     0.092080000000     0.442864   
C20      C      0.628800000000     0.012630000000     0.144610000000     0.442923   
C21      C      0.613670000000     0.029360000000     0.514330000000     0.441988   
C22      C      0.644440000000     0.997220000000     0.689830000000     0.441735   
C23      C      0.684900000000     0.009080000000     0.573910000000     0.442625   
C24      C      0.572940000000     0.017420000000     0.629970000000     0.443731   
C25      C      0.082820000000     0.041170000000     0.042040000000     0.441788   
C26      C      0.967390000000     0.054870000000     0.069890000000     0.442732   
C27      C      0.033010000000     0.106060000000     0.067210000000     0.441513   
C28      C      0.016880000000     0.990180000000     0.044400000000     0.438415   
C29      C      0.026100000000     0.966980000000     0.532230000000     0.441792   
C30      C      0.909330000000     0.979420000000     0.539720000000     0.441787   
C31      C      0.974250000000     0.031730000000     0.534540000000     0.442752   
C32      C      0.962010000000     0.914550000000     0.537410000000     0.442087   
C33      C      0.048910000000     0.368550000000     0.946570000000     0.442434   
C34      C      0.032660000000     0.402560000000     0.126220000000     0.44206    
C35      C      0.042490000000     0.442050000000     0.008510000000     0.442361   
C36      C      0.039120000000     0.329500000000     0.064510000000     0.440357   
C37      C      0.020340000000     0.303240000000     0.412740000000     0.43983    
C38      C      0.041870000000     0.323450000000     0.596300000000     0.441791   
C39      C      0.042840000000     0.369530000000     0.484210000000     0.440775   
C40      C      0.019030000000     0.256900000000     0.524510000000     0.439905   
C41      C      0.076500000000     0.309330000000     0.756590000000    -0.0424553  
C42      C      0.078600000000     0.325300000000     0.666210000000    -0.0168038  
C43      C      0.082090000000     0.347020000000     0.823060000000     0.0136949  
C44      C      0.078900000000     0.332930000000     0.720910000000     0.0141279  
C45      C      0.083860000000     0.354550000000     0.877700000000    -0.0160609  
C46      C      0.082100000000     0.363710000000     0.736690000000    -0.0424313  
C47      C      0.083570000000     0.370720000000     0.787420000000    -0.0419774  
C48      C      0.078000000000     0.316340000000     0.807330000000    -0.0421759  
C49      C      0.044910000000     0.323130000000     0.244820000000    -0.0454479  
C50      C      0.039080000000     0.294540000000     0.326340000000    -0.018394   
C51      C      0.050300000000     0.379150000000     0.241940000000     0.0182463  
C52      C      0.043890000000     0.323940000000     0.297030000000     0.0178269  
C53      C      0.052610000000     0.408780000000     0.212360000000    -0.0182323  
C54      C      0.047530000000     0.352480000000     0.321500000000    -0.0374815  
C55      C      0.050490000000     0.379840000000     0.294210000000    -0.0455786  
C56      C      0.048400000000     0.350420000000     0.217560000000    -0.0377796  
C57      C      0.020090000000     0.116810000000     0.529620000000    -0.0420798  
C58      C      0.985560000000     0.080470000000     0.578780000000    -0.0148824  
C59      C      0.022810000000     0.171640000000     0.549340000000     0.0161287  
C60      C      0.998150000000     0.112290000000     0.567490000000     0.0153896  
C61      C      0.036380000000     0.203300000000     0.540140000000    -0.0177424  
C62      C      0.989510000000     0.137530000000     0.597270000000    -0.0395476  
C63      C      0.001980000000     0.166840000000     0.588670000000    -0.0471342  
C64      C      0.032020000000     0.146280000000     0.520270000000    -0.0438316  
C65      C      0.037230000000     0.238230000000     0.138490000000    -0.0421307  
C66      C      0.065140000000     0.283940000000     0.100860000000    -0.0173559  
C67      C      0.050260000000     0.185400000000     0.115610000000     0.0141573  
C68      C      0.059730000000     0.249600000000     0.105640000000     0.0141158  
C69      C      0.045350000000     0.150980000000     0.120640000000    -0.0168509  
C70      C      0.077720000000     0.228600000000     0.078310000000    -0.0425853  
C71      C      0.073170000000     0.196780000000     0.083540000000    -0.0417609  
C72      C      0.032380000000     0.206390000000     0.143190000000    -0.0433041  
C73      C      0.812540000000     0.960180000000     0.539740000000    -0.0414571  
C74      C      0.859160000000     0.983060000000     0.496770000000    -0.0187959  
C75      C      0.761090000000     0.980970000000     0.526540000000     0.0126415  
C76      C      0.825130000000     0.983050000000     0.508680000000     0.0137865  
C77      C      0.726690000000     0.979120000000     0.534390000000    -0.0174171  
C78      C      0.805390000000     0.004790000000     0.486420000000    -0.0425958  
C79      C      0.773610000000     0.003650000000     0.495060000000    -0.0401148  
C80      C      0.780830000000     0.959310000000     0.548950000000    -0.0423289  
C81      C      0.633850000000     0.956730000000     0.891820000000    -0.0426967  
C82      C      0.666870000000     0.960710000000     0.968870000000    -0.0164458  
C83      C      0.656610000000     0.955290000000     0.809200000000     0.01393    
C84      C      0.663330000000     0.957790000000     0.913310000000     0.0140912  
C85      C      0.652980000000     0.956780000000     0.753530000000    -0.0161921  
C86      C      0.689430000000     0.957520000000     0.882410000000    -0.0417678  
C87      C      0.686090000000     0.956340000000     0.830710000000    -0.042477   
C88      C      0.630510000000     0.955620000000     0.840110000000    -0.0416455  
C89      C      0.626720000000     0.020320000000     0.339830000000    -0.0456253  
C90      C      0.603170000000     0.016330000000     0.425680000000    -0.0171822  
C91      C      0.682230000000     0.024760000000     0.328000000000     0.0183802  
C92      C      0.630780000000     0.018440000000     0.391580000000     0.017617   
C93      C      0.710020000000     0.028060000000     0.294450000000    -0.0182007  
C94      C      0.660880000000     0.018270000000     0.411070000000    -0.0369731  
C95      C      0.686320000000     0.021520000000     0.379600000000    -0.0458944  
C96      C      0.652190000000     0.023100000000     0.308290000000    -0.0364405  
C97      C      0.872050000000     0.025700000000     0.022820000000    -0.042961   
C98      C      0.914480000000     0.064720000000     0.038060000000    -0.0185366  
C99      C      0.825580000000     0.025050000000     0.073440000000     0.0130844  
C100     C      0.883520000000     0.050810000000     0.050350000000     0.0172433  
C101     C      0.794320000000     0.011790000000     0.085620000000    -0.014592   
C102     C      0.865810000000     0.062890000000     0.089550000000    -0.0433041  
C103     C      0.837190000000     0.049960000000     0.101240000000    -0.0405237  
C104     C      0.843230000000     0.013000000000     0.034130000000    -0.039595   
C105     C      0.079610000000     0.460400000000     0.410650000000    -0.0423462  
C106     C      0.079730000000     0.410130000000     0.458830000000    -0.0168394  
C107     C      0.082180000000     0.509990000000     0.453100000000     0.0144945  
C108     C      0.080790000000     0.444930000000     0.456570000000     0.0134799  
C109     C      0.081580000000     0.544800000000     0.451420000000    -0.0167169  
C110     C      0.082380000000     0.462210000000     0.500720000000    -0.0414795  
C111     C      0.082910000000     0.494510000000     0.499010000000    -0.0418788  
C112     C      0.080250000000     0.492710000000     0.408940000000    -0.0432386  
C113     C      0.020060000000     0.805130000000     0.530680000000    -0.0404791  
C114     C      0.024590000000     0.747130000000     0.540450000000    -0.0154558  
C115     C      0.979180000000     0.834160000000     0.571540000000     0.0191581  
C116     C      0.009050000000     0.777550000000     0.551730000000     0.00926952 
C117     C      0.963550000000     0.864580000000     0.582920000000    -0.0195569  
C118     C      0.983580000000     0.778620000000     0.583980000000    -0.0372844  
C119     C      0.968700000000     0.806670000000     0.593670000000    -0.0471702  
C120     C      0.005490000000     0.833240000000     0.540980000000    -0.0450535  
C121     C      0.060080000000     0.522140000000     0.914660000000    -0.0411844  
C122     C      0.072100000000     0.489470000000     0.989940000000    -0.0165913  
C123     C      0.057200000000     0.578180000000     0.919700000000     0.0161529  
C124     C      0.066810000000     0.520460000000     0.965710000000     0.0139553  
C125     C      0.052430000000     0.609200000000     0.895450000000    -0.0181773  
C126     C      0.068560000000     0.547840000000     0.993660000000    -0.0427963  
C127     C      0.063860000000     0.576490000000     0.970780000000    -0.040136   
C128     C      0.055220000000     0.550770000000     0.891830000000    -0.044652   
C129     C      0.031730000000     0.677220000000     0.769250000000    -0.0397019  
C130     C      0.021200000000     0.734640000000     0.776290000000    -0.0206123  
C131     C      0.029900000000     0.650520000000     0.689530000000     0.0176362  
C132     C      0.024100000000     0.705330000000     0.746060000000     0.0200969  
C133     C      0.034590000000     0.621270000000     0.659580000000    -0.0173629  
C134     C      0.020040000000     0.705920000000     0.694180000000    -0.0468724  
C135     C      0.023220000000     0.678870000000     0.666140000000    -0.0364692  
C136     C      0.034530000000     0.650110000000     0.741290000000    -0.044474   
C137     C      0.066590000000     0.711400000000     0.196580000000    -0.0417604  
C138     C      0.071690000000     0.689450000000     0.109930000000    -0.01683    
C139     C      0.072480000000     0.679120000000     0.270040000000     0.01377    
C140     C      0.072020000000     0.685760000000     0.165730000000     0.0139531  
C141     C      0.072190000000     0.675360000000     0.325810000000    -0.0162706  
C142     C      0.077220000000     0.656680000000     0.187410000000    -0.0427433  
C143     C      0.077390000000     0.653380000000     0.239190000000    -0.0417289  
C144     C      0.066700000000     0.708090000000     0.248350000000    -0.0425613  
C145     C      0.978370000000     0.898380000000     0.032220000000    -0.03756    
C146     C      0.009170000000     0.938130000000     0.080230000000    -0.018928   
C147     C      0.992960000000     0.844090000000     0.031450000000     0.0182246  
C148     C      0.003570000000     0.905350000000     0.063140000000     0.0113828  
C149     C      0.987270000000     0.811230000000     0.014820000000    -0.016816   
C150     C      0.022920000000     0.881290000000     0.079150000000    -0.0412653  
C151     C      0.017480000000     0.850890000000     0.063840000000    -0.0451498  
C152     C      0.973250000000     0.868050000000     0.016190000000    -0.0452997  
C153     C      0.479630000000     0.056550000000     0.620950000000    -0.0420287  
C154     C      0.529960000000     0.047780000000     0.665750000000    -0.0176259  
C155     C      0.430420000000     0.045170000000     0.660100000000     0.0137033  
C156     C      0.495260000000     0.046740000000     0.663890000000     0.0155141  
C157     C      0.395780000000     0.043830000000     0.657480000000    -0.0165774  
C158     C      0.478270000000     0.035620000000     0.704630000000    -0.0435981  
C159     C      0.446060000000     0.034750000000     0.702690000000    -0.0418776  
C160     C      0.447440000000     0.055680000000     0.619020000000    -0.040857   
C161     C      0.127000000000     0.982330000000     0.470180000000    -0.0419112  
C162     C      0.074020000000     0.959310000000     0.483870000000    -0.016773   
C163     C      0.172530000000     0.960300000000     0.509370000000     0.015347   
C164     C      0.108400000000     0.959640000000     0.492460000000     0.0136739  
C165     C      0.206870000000     0.960700000000     0.518250000000    -0.0175036  
C166     C      0.122190000000     0.937020000000     0.522670000000    -0.0414246  
C167     C      0.153950000000     0.937480000000     0.531380000000    -0.043357   
C168     C      0.158840000000     0.982530000000     0.478310000000    -0.0441682  
C169     C      0.531280000000     0.983870000000     0.202900000000    -0.0436877  
C170     C      0.587490000000     0.979150000000     0.178940000000    -0.0186504  
C171     C      0.490530000000     0.969310000000     0.145340000000     0.0138328  
C172     C      0.553660000000     0.975660000000     0.167520000000     0.0149616  
C173     C      0.456750000000     0.966500000000     0.133100000000    -0.0165063  
C174     C      0.544250000000     0.964710000000     0.120730000000    -0.0413394  
C175     C      0.512900000000     0.961660000000     0.109650000000    -0.0421678  
C176     C      0.499920000000     0.980780000000     0.191830000000    -0.0421658  
C177     C      0.299720000000     0.000440000000     0.849840000000    -0.0414702  
C178     C      0.274710000000     0.998070000000     0.764920000000    -0.0188895  
C179     C      0.355520000000     0.001740000000     0.859810000000     0.0184372  
C180     C      0.302940000000     0.999990000000     0.797830000000     0.0139255  
C181     C      0.383760000000     0.002260000000     0.892790000000    -0.0164378  
C182     C      0.332690000000     0.001940000000     0.777110000000    -0.0342495  
C183     C      0.358700000000     0.002650000000     0.807810000000    -0.046794   
C184     C      0.325720000000     0.001620000000     0.880530000000    -0.0387476  
C185     C      0.303170000000     0.059840000000     0.299250000000    -0.0428072  
C186     C      0.336250000000     0.059940000000     0.221950000000    -0.0168188  
C187     C      0.325870000000     0.061460000000     0.381920000000     0.0139283  
C188     C      0.332620000000     0.061200000000     0.277690000000     0.014493   
C189     C      0.322350000000     0.059670000000     0.437620000000    -0.01624    
C190     C      0.358690000000     0.062550000000     0.308610000000    -0.0419293  
C191     C      0.355340000000     0.062620000000     0.360360000000    -0.042436   
C192     C      0.299820000000     0.059830000000     0.351010000000    -0.0414856  
C193     C      0.212390000000     0.018840000000     0.966800000000    -0.0419089  
C194     C      0.262430000000     0.040460000000     0.000150000000    -0.0175065  
C195     C      0.162860000000     0.040820000000     0.990190000000     0.014474   
C196     C      0.227710000000     0.040430000000     0.997050000000     0.0146886  
C197     C      0.128160000000     0.041490000000     0.986250000000    -0.0170899  
C198     C      0.210360000000     0.062370000000     0.023500000000    -0.0424977  
C199     C      0.178220000000     0.062700000000     0.019820000000    -0.0415692  
C200     C      0.180210000000     0.018930000000     0.963600000000    -0.0432732  
H1       H      0.033570000000     0.355840000000     0.876500000000     0.104931   
H2       H      0.094720000000     0.340840000000     0.645870000000     0.0426079  
H3       H      0.086600000000     0.301170000000     0.659830000000     0.0425456  
H4       H      0.076240000000     0.297810000000     0.834320000000     0.0401116  
H5       H      0.073710000000     0.285470000000     0.745160000000     0.0396587  
H6       H      0.095490000000     0.335490000000     0.898240000000     0.0414546  
H7       H      0.083690000000     0.382250000000     0.709690000000     0.0400495  
H8       H      0.086140000000     0.394600000000     0.798890000000     0.03959    
H9       H      0.098310000000     0.375470000000     0.883840000000     0.0426608  
H10      H      0.029340000000     0.335840000000     0.668050000000     0.104537   
H11      H      0.005540000000     0.413610000000     0.187280000000     0.103341   
H12      H      0.032090000000     0.275420000000     0.301050000000     0.0339119  
H13      H      0.061300000000     0.287990000000     0.344040000000     0.0484976  
H14      H      0.049130000000     0.349020000000     0.177370000000     0.0486424  
H15      H      0.042800000000     0.301400000000     0.225050000000     0.0372302  
H16      H      0.049720000000     0.429000000000     0.237500000000     0.0338637  
H17      H      0.047670000000     0.353740000000     0.361750000000     0.0479096  
H18      H      0.052690000000     0.401560000000     0.313990000000     0.0375693  
H19      H      0.075920000000     0.410250000000     0.195310000000     0.047811   
H20      H      0.992090000000     0.301410000000     0.350520000000     0.105425   
H21      H      0.989260000000     0.221250000000     0.541680000000     0.105651   
H22      H      0.003050000000     0.067810000000     0.601190000000     0.0439613  
H23      H      0.964460000000     0.081890000000     0.602200000000     0.0418153  
H24      H      0.048670000000     0.149190000000     0.490590000000     0.0386613  
H25      H      0.028070000000     0.097550000000     0.507300000000     0.0422234  
H26      H      0.051810000000     0.209430000000     0.571670000000     0.0415377  
H27      H      0.973350000000     0.134500000000     0.627640000000     0.0382112  
H28      H      0.995290000000     0.185830000000     0.612640000000     0.0440017  
H29      H      0.051010000000     0.203400000000     0.506110000000     0.0441742  
H30      H      0.977020000000     0.074150000000     0.499200000000     0.103707   
H31      H      0.034640000000     0.151010000000     0.041250000000     0.103801   
H32      H      0.069890000000     0.293600000000     0.138430000000     0.0373589  
H33      H      0.085710000000     0.288920000000     0.077410000000     0.0451811  
H34      H      0.014750000000     0.198160000000     0.168500000000     0.0384522  
H35      H      0.023370000000     0.254040000000     0.160370000000     0.0378848  
H36      H      0.066820000000     0.140120000000     0.135020000000     0.0426834  
H37      H      0.095410000000     0.236810000000     0.053100000000     0.0387652  
H38      H      0.087410000000     0.180970000000     0.062310000000     0.0409689  
H39      H      0.027000000000     0.145700000000     0.148310000000     0.0424881  
H40      H      0.016560000000     0.288590000000     0.080830000000     0.103369   
H41      H      0.728620000000     0.026690000000     0.561620000000     0.103832   
H42      H      0.864440000000     0.962080000000     0.474360000000     0.0449113  
H43      H      0.865660000000     0.003320000000     0.473510000000     0.0441404  
H44      H      0.771680000000     0.941410000000     0.572970000000     0.0389154  
H45      H      0.827250000000     0.942830000000     0.556570000000     0.0419609  
H46      H      0.715180000000     0.976030000000     0.497730000000     0.0390113  
H47      H      0.814470000000     0.022360000000     0.461710000000     0.0386285  
H48      H      0.758730000000     0.020310000000     0.476900000000     0.0384461  
H49      H      0.720450000000     0.958470000000     0.556990000000     0.0447069  
H50      H      0.867880000000     0.985080000000     0.576890000000     0.103423   
H51      H      0.659070000000     0.006560000000     0.761470000000     0.106227   
H52      H      0.648400000000     0.947460000000     0.988140000000     0.0403067  
H53      H      0.689400000000     0.951040000000     0.981200000000     0.0440779  
H54      H      0.607570000000     0.955490000000     0.824160000000     0.040199   
H55      H      0.613440000000     0.957330000000     0.915050000000     0.0396322  
H56      H      0.672250000000     0.944380000000     0.734900000000     0.0404492  
H57      H      0.712360000000     0.958720000000     0.898290000000     0.0400756  
H58      H      0.706480000000     0.956760000000     0.807420000000     0.0399536  
H59      H      0.631440000000     0.944840000000     0.741760000000     0.0440756  
H60      H      0.657000000000     0.009740000000     0.958280000000     0.106106   
H61      H      0.701810000000     0.072800000000     0.261070000000     0.10286    
H62      H      0.581770000000     0.022180000000     0.404930000000     0.034441   
H63      H      0.601070000000     0.992090000000     0.439000000000     0.0476157  
H64      H      0.648230000000     0.024260000000     0.268560000000     0.0479613  
H65      H      0.603830000000     0.019710000000     0.323730000000     0.0382819  
H66      H      0.729510000000     0.037920000000     0.316170000000     0.0343386  
H67      H      0.664780000000     0.015910000000     0.450700000000     0.0470913  
H68      H      0.709240000000     0.021630000000     0.395640000000     0.0379503  
H69      H      0.717010000000     0.004750000000     0.281180000000     0.0488529  
H70      H      0.605710000000     0.061730000000     0.458860000000     0.103006   
H71      H      0.775580000000     0.056370000000     0.062590000000     0.104795   
H72      H      0.923080000000     0.056180000000     0.001530000000     0.0480305  
H73      H      0.911860000000     0.090230000000     0.035270000000     0.0394507  
H74      H      0.834740000000     0.993790000000     0.012180000000     0.0371137  
H75      H      0.885330000000     0.015980000000     0.992470000000     0.0408707  
H76      H      0.789140000000     0.991170000000     0.062320000000     0.0402685  
H77      H      0.874210000000     0.082280000000     0.111180000000     0.0399667  
H78      H      0.823920000000     0.059550000000     0.131720000000     0.0419279  
H79      H      0.794170000000     0.003710000000     0.124930000000     0.0435363  
H80      H      0.928770000000     0.057210000000     0.114670000000     0.103402   
H81      H      0.032290000000     0.541220000000     0.437190000000     0.104558   
H82      H      0.085980000000     0.399750000000     0.422300000000     0.0389595  
H83      H      0.096720000000     0.401630000000     0.486700000000     0.0440064  
H84      H      0.079070000000     0.504260000000     0.373210000000     0.0389824  
H85      H      0.078030000000     0.447490000000     0.376180000000     0.036557   
H86      H      0.093730000000     0.554620000000     0.484310000000     0.0449679  
H87      H      0.082980000000     0.450670000000     0.536500000000     0.0409635  
H88      H      0.083820000000     0.507430000000     0.533530000000     0.0404745  
H89      H      0.094290000000     0.553200000000     0.418110000000     0.0388299  
H90      H      0.030490000000     0.415240000000     0.473190000000     0.104376   
H91      H      0.956270000000     0.871880000000     0.503750000000     0.103547   
H92      H      0.045200000000     0.750280000000     0.516310000000     0.0429235  
H93      H      0.032790000000     0.736740000000     0.575930000000     0.038949   
H94      H      0.014610000000     0.854250000000     0.524700000000     0.0443175  
H95      H      0.039970000000     0.804970000000     0.506340000000     0.037879   
H96      H      0.940270000000     0.860490000000     0.598940000000     0.0391109  
H97      H      0.975080000000     0.757660000000     0.601320000000     0.038876   
H98      H      0.948990000000     0.806890000000     0.618430000000     0.0389234  
H99      H      0.977350000000     0.877030000000     0.611480000000     0.0483447  
H100     H      0.980050000000     0.731750000000     0.511690000000     0.105616   
H101     H      0.004190000000     0.610530000000     0.916070000000     0.103375   
H102     H      0.088970000000     0.476030000000     0.967450000000     0.0433168  
H103     H      0.082030000000     0.492070000000     0.027900000000     0.0416014  
H104     H      0.050040000000     0.551500000000     0.852410000000     0.0374559  
H105     H      0.058570000000     0.501240000000     0.892540000000     0.0407568  
H106     H      0.073220000000     0.623700000000     0.901850000000     0.047294   
H107     H      0.073630000000     0.547070000000     0.033120000000     0.039168   
H108     H      0.065430000000     0.597390000000     0.992890000000     0.0443692  
H109     H      0.049900000000     0.606490000000     0.854500000000     0.0332271  
H110     H      0.022410000000     0.482600000000     0.983570000000     0.104856   
H111     H      0.989230000000     0.611520000000     0.630150000000     0.104773   
H112     H      0.044220000000     0.740490000000     0.791880000000     0.0488114  
H113     H      0.013680000000     0.754120000000     0.752140000000     0.0338803  
H114     H      0.040540000000     0.628790000000     0.760140000000     0.0369136  
H115     H      0.035640000000     0.676160000000     0.809000000000     0.0507083  
H116     H      0.058430000000     0.621230000000     0.644390000000     0.0476559  
H117     H      0.014670000000     0.727370000000     0.675220000000     0.0375949  
H118     H      0.020480000000     0.680280000000     0.626170000000     0.0482187  
H119     H      0.032170000000     0.600850000000     0.684450000000     0.0330672  
H120     H      0.975060000000     0.731080000000     0.805900000000     0.103087   
H121     H      0.023500000000     0.663630000000     0.318240000000     0.104766   
H122     H      0.083170000000     0.711520000000     0.099380000000     0.0438333  
H123     H      0.084600000000     0.670370000000     0.091560000000     0.0405256  
H124     H      0.062330000000     0.728130000000     0.271490000000     0.0396179  
H125     H      0.062180000000     0.733950000000     0.180510000000     0.0405564  
H126     H      0.090190000000     0.658470000000     0.337360000000     0.0430843  
H127     H      0.081090000000     0.636530000000     0.164270000000     0.038895   
H128     H      0.081360000000     0.630740000000     0.255250000000     0.0402964  
H129     H      0.078240000000     0.697520000000     0.344450000000     0.0413079  
H130     H      0.021830000000     0.683920000000     0.115170000000     0.104512   
H131     H      0.034620000000     0.811200000000     0.987100000000     0.103273   
H132     H      0.989340000000     0.945580000000     0.103590000000     0.0445571  
H133     H      0.030130000000     0.939850000000     0.103960000000     0.0439279  
H134     H      0.953840000000     0.863310000000     0.991990000000     0.03935    
H135     H      0.962760000000     0.916470000000     0.020270000000     0.0403405  
H136     H      0.980180000000     0.797140000000     0.047510000000     0.0442695  
H137     H      0.042180000000     0.885990000000     0.103690000000     0.0381243  
H138     H      0.032570000000     0.832660000000     0.076950000000     0.0418722  
H139     H      0.967910000000     0.809990000000     0.987720000000     0.0432836  
H140     H      0.008970000000     0.951270000000     0.001650000000     0.102597   
H141     H      0.400700000000     0.995830000000     0.634140000000     0.102958   
H142     H      0.538570000000     0.068230000000     0.644770000000     0.0463747  
H143     H      0.538070000000     0.050080000000     0.704850000000     0.0404761  
H144     H      0.435790000000     0.063260000000     0.585500000000     0.0409814  
H145     H      0.492360000000     0.064830000000     0.588920000000     0.0417026  
H146     H      0.385640000000     0.046080000000     0.695350000000     0.0379272  
H147     H      0.489930000000     0.027590000000     0.737850000000     0.0394298  
H148     H      0.433330000000     0.026020000000     0.734420000000     0.0370656  
H149     H      0.386840000000     0.063760000000     0.635600000000     0.0451092  
H150     H      0.529270000000     0.999620000000     0.641980000000     0.103149   
H151     H      0.201110000000     0.007660000000     0.546720000000     0.104478   
H152     H      0.066930000000     0.977320000000     0.456580000000     0.0436035  
H153     H      0.067370000000     0.936540000000     0.467890000000     0.040621   
H154     H      0.172820000000     0.000140000000     0.460600000000     0.0416725  
H155     H      0.116920000000     0.999880000000     0.446460000000     0.0379721  
H156     H      0.214260000000     0.940380000000     0.540700000000     0.0450405  
H157     H      0.108270000000     0.919150000000     0.539840000000     0.0398092  
H158     H      0.164010000000     0.919960000000     0.555170000000     0.0391336  
H159     H      0.219000000000     0.958720000000     0.481920000000     0.0413196  
H160     H      0.069150000000     0.963250000000     0.564520000000     0.103337   
H161     H      0.459100000000     0.014840000000     0.110090000000     0.105497   
H162     H      0.591410000000     0.979220000000     0.219850000000     0.0366127  
H163     H      0.600450000000     0.959290000000     0.162950000000     0.0467313  
H164     H      0.482970000000     0.987320000000     0.219510000000     0.0395313  
H165     H      0.538060000000     0.992740000000     0.238980000000     0.0374439  
H166     H      0.452870000000     0.947420000000     0.106010000000     0.0433739  
H167     H      0.561180000000     0.958650000000     0.092740000000     0.041582   
H168     H      0.506100000000     0.953300000000     0.073260000000     0.040252   
H169     H      0.443440000000     0.960140000000     0.167000000000     0.0423069  
H170     H      0.583870000000     0.027150000000     0.155780000000     0.104098   
H171     H      0.380410000000     0.956510000000     0.924620000000     0.10252    
H172     H      0.254590000000     0.989980000000     0.787020000000     0.0340595  
H173     H      0.269360000000     0.021650000000     0.750940000000     0.0498107  
H174     H      0.322440000000     0.002070000000     0.920470000000     0.0477214  
H175     H      0.277070000000     0.999810000000     0.866820000000     0.0354416  
H176     H      0.404360000000     0.995460000000     0.870710000000     0.0328831  
H177     H      0.335950000000     0.002680000000     0.737190000000     0.0473248  
H178     H      0.381340000000     0.003760000000     0.790850000000     0.0379055  
H179     H      0.387410000000     0.026220000000     0.906510000000     0.0484471  
H180     H      0.280890000000     0.952720000000     0.732740000000     0.102679   
H181     H      0.332460000000     0.010520000000     0.430220000000     0.105013   
H182     H      0.316960000000     0.072490000000     0.203590000000     0.0407668  
H183     H      0.358110000000     0.071320000000     0.210270000000     0.0445167  
H184     H      0.276930000000     0.058310000000     0.366950000000     0.0401995  
H185     H      0.282810000000     0.058380000000     0.276000000000     0.0401122  
H186     H      0.340690000000     0.073450000000     0.456200000000     0.0400252  
H187     H      0.381630000000     0.063200000000     0.292680000000     0.040198   
H188     H      0.375730000000     0.063260000000     0.383620000000     0.039734   
H189     H      0.300030000000     0.070070000000     0.449370000000     0.0441541  
H190     H      0.329190000000     0.010220000000     0.229130000000     0.105056   
H191     H      0.127210000000     0.032080000000     0.066070000000     0.104009   
H192     H      0.272050000000     0.041050000000     0.961780000000     0.0382071  
H193     H      0.271060000000     0.061380000000     0.019850000000     0.0456505  
H194     H      0.168890000000     0.002000000000     0.940160000000     0.0388465  
H195     H      0.225390000000     0.001900000000     0.945750000000     0.0383293  
H196     H      0.120870000000     0.063880000000     0.969610000000     0.0439299  
H197     H      0.221670000000     0.079370000000     0.046810000000     0.0391514  
H198     H      0.165270000000     0.079970000000     0.040240000000     0.0414715  
H199     H      0.119590000000     0.023090000000     0.960830000000     0.0423858  
H200     H      0.259540000000     0.992970000000     0.027210000000     0.102129   
N1       N      0.053070000000     0.359510000000     0.898700000000    -0.218917   
N2       N      0.047610000000     0.328900000000     0.645170000000    -0.218792   
N3       N      0.028080000000     0.409800000000     0.174820000000    -0.218334   
N4       N      0.014720000000     0.299120000000     0.363480000000    -0.219271   
N5       N      0.012350000000     0.227000000000     0.535260000000    -0.2195     
N6       N      0.978520000000     0.062800000000     0.533510000000    -0.218729   
N7       N      0.037130000000     0.136960000000     0.072730000000    -0.218841   
N8       N      0.037960000000     0.299760000000     0.080550000000    -0.218898   
N9       N      0.714590000000     0.007110000000     0.558290000000    -0.218606   
N10      N      0.878240000000     0.982710000000     0.541910000000    -0.218417   
N11      N      0.652580000000     0.989020000000     0.736720000000    -0.219506   
N12      N      0.664660000000     0.993220000000     0.983960000000    -0.220596   
N13      N      0.703390000000     0.049180000000     0.253070000000    -0.218686   
N14      N      0.606620000000     0.038110000000     0.467160000000    -0.218546   
N15      N      0.770020000000     0.034930000000     0.078310000000    -0.219189   
N16      N      0.936690000000     0.058220000000     0.077910000000    -0.217886   
N17      N      0.049760000000     0.556170000000     0.449210000000    -0.218597   
N18      N      0.048830000000     0.399490000000     0.472860000000    -0.21938    
N19      N      0.959910000000     0.883240000000     0.537650000000    -0.218409   
N20      N      0.003140000000     0.725450000000     0.516690000000    -0.220305   
N21      N      0.024350000000     0.623800000000     0.914780000000    -0.218449   
N22      N      0.043240000000     0.471950000000     0.993270000000    -0.218819   
N23      N      0.011420000000     0.618590000000     0.620040000000    -0.219448   
N24      N      0.998350000000     0.730440000000     0.815950000000    -0.215473   
N25      N      0.041900000000     0.665000000000     0.343370000000    -0.218547   
N26      N      0.039960000000     0.689590000000     0.091120000000    -0.218984   
N27      N      0.014870000000     0.797640000000     0.992050000000    -0.219277   
N28      N      0.011930000000     0.959470000000     0.037990000000    -0.218195   
N29      N      0.385480000000     0.014600000000     0.635410000000    -0.218796   
N30      N      0.543070000000     0.019410000000     0.644670000000    -0.217882   
N31      N      0.216650000000     0.989290000000     0.543070000000    -0.219107   
N32      N      0.057170000000     0.963610000000     0.530700000000    -0.219174   
N33      N      0.444660000000     0.995510000000     0.112680000000    -0.219246   
N34      N      0.599020000000     0.008380000000     0.158520000000    -0.218482   
N35      N      0.380280000000     0.980040000000     0.933670000000    -0.219049   
N36      N      0.279950000000     0.976260000000     0.723940000000    -0.218308   
N37      N      0.324280000000     0.027520000000     0.454630000000    -0.218976   
N38      N      0.336020000000     0.027780000000     0.204670000000    -0.218991   
N39      N      0.113600000000     0.037590000000     0.035140000000    -0.218685   
N40      N      0.273850000000     0.012400000000     0.024720000000    -0.218294   
Ni1      Ni     0.363750000000     0.030550000000     0.059330000000     1.00546    
Ni2      Ni     0.354480000000     0.977620000000     0.079650000000     1.00454    
Ni3      Ni     0.295040000000     0.028130000000     0.599260000000     1.00636    
Ni4      Ni     0.307230000000     0.975840000000     0.578580000000     1.00457    
Ni5      Ni     0.046180000000     0.713850000000     0.944300000000     1.00211    
Ni6      Ni     0.992750000000     0.707530000000     0.963070000000     1.00799    
Ni7      Ni     0.053160000000     0.646910000000     0.491600000000     1.00247    
Ni8      Ni     0.000760000000     0.635470000000     0.471490000000     1.00263    
Ni9      Ni     0.678530000000     0.047100000000     0.106570000000     1.01078    
Ni10     Ni     0.690670000000     0.995250000000     0.130000000000     0.99998    
Ni11     Ni     0.632950000000     0.039740000000     0.612880000000     1.00824    
Ni12     Ni     0.624950000000     0.986780000000     0.591360000000     1.00261    
Ni13     Ni     0.021530000000     0.051920000000     0.012260000000     1.00289    
Ni14     Ni     0.028670000000     0.044250000000     0.099510000000     1.00229    
Ni15     Ni     0.966520000000     0.972860000000     0.491580000000     1.00468    
Ni16     Ni     0.968940000000     0.973520000000     0.580370000000     1.00696    
Ni17     Ni     0.013540000000     0.385430000000     0.030020000000     1.00535    
Ni18     Ni     0.068030000000     0.386070000000     0.042610000000     1.0052     
Ni19     Ni     0.004510000000     0.319660000000     0.510760000000     1.00197    
Ni20     Ni     0.057490000000     0.306780000000     0.498370000000     1.00521    
O1       O      0.321520000000     0.033130000000     0.038910000000    -0.454929   
O2       O      0.405500000000     0.024420000000     0.080800000000    -0.453199   
O3       O      0.374490000000     0.017050000000     0.993740000000    -0.454002   
O4       O      0.352110000000     0.040590000000     0.126280000000    -0.453795   
O5       O      0.343200000000     0.991170000000     0.145070000000    -0.45589    
O6       O      0.366440000000     0.967560000000     0.012850000000    -0.454737   
O7       O      0.396690000000     0.975080000000     0.100230000000    -0.453172   
O8       O      0.312790000000     0.983690000000     0.057740000000    -0.455215   
O9       O      0.253800000000     0.019840000000     0.577130000000    -0.453814   
O10      O      0.336950000000     0.032880000000     0.620280000000    -0.455529   
O11      O      0.306540000000     0.039040000000     0.532610000000    -0.454154   
O12      O      0.284610000000     0.013820000000     0.664510000000    -0.454252   
O13      O      0.294940000000     0.964840000000     0.644860000000    -0.454402   
O14      O      0.318650000000     0.990320000000     0.513730000000    -0.455934   
O15      O      0.348240000000     0.983880000000     0.602040000000    -0.455583   
O16      O      0.265500000000     0.971320000000     0.556390000000    -0.453239   
O17      O      0.034160000000     0.723670000000     0.877550000000    -0.454578   
O18      O      0.054630000000     0.703450000000     0.012410000000    -0.453058   
O19      O      0.047040000000     0.670940000000     0.926910000000    -0.456075   
O20      O      0.041810000000     0.756430000000     0.962630000000    -0.455012   
O21      O      0.992120000000     0.750380000000     0.981600000000    -0.450416   
O22      O      0.997030000000     0.665080000000     0.943410000000    -0.451036   
O23      O      0.004760000000     0.696870000000     0.029530000000    -0.456089   
O24      O      0.984230000000     0.718600000000     0.895290000000    -0.451821   
O25      O      0.058740000000     0.658630000000     0.423360000000    -0.453435   
O26      O      0.044120000000     0.634560000000     0.558430000000    -0.454818   
O27      O      0.062810000000     0.604920000000     0.474710000000    -0.453496   
O28      O      0.039970000000     0.688050000000     0.507550000000    -0.45347    
O29      O      0.991160000000     0.677530000000     0.487750000000    -0.451238   
O30      O      0.013810000000     0.594140000000     0.456630000000    -0.453858   
O31      O      0.995110000000     0.624140000000     0.539970000000    -0.450021   
O32      O      0.009910000000     0.647610000000     0.404410000000    -0.453108   
O33      O      0.668880000000     0.031510000000     0.041600000000    -0.454738   
O34      O      0.689070000000     0.059200000000     0.173160000000    -0.454579   
O35      O      0.720720000000     0.051780000000     0.087070000000    -0.455448   
O36      O      0.637060000000     0.039020000000     0.127560000000    -0.455615   
O37      O      0.648260000000     0.990440000000     0.148560000000    -0.455159   
O38      O      0.732330000000     0.003620000000     0.110030000000    -0.451905   
O39      O      0.699600000000     0.010650000000     0.195160000000    -0.454594   
O40      O      0.680780000000     0.983190000000     0.063290000000    -0.455666   
O41      O      0.620730000000     0.050120000000     0.546370000000    -0.455419   
O42      O      0.644530000000     0.025900000000     0.677940000000    -0.454181   
O43      O      0.674810000000     0.034850000000     0.590950000000    -0.454021   
O44      O      0.590660000000     0.041060000000     0.633420000000    -0.453615   
O45      O      0.583050000000     0.991720000000     0.612730000000    -0.455767   
O46      O      0.667260000000     0.985360000000     0.571160000000    -0.456051   
O47      O      0.636730000000     0.976450000000     0.658120000000    -0.453255   
O48      O      0.613930000000     0.000620000000     0.526050000000    -0.453827   
O49      O      0.065230000000     0.046960000000     0.004810000000    -0.452405   
O50      O      0.978320000000     0.056440000000     0.025600000000    -0.451302   
O51      O      0.027230000000     0.095260000000     0.023810000000    -0.455283   
O52      O      0.016260000000     0.008060000000     0.006390000000    -0.453609   
O53      O      0.021800000000     0.001020000000     0.088130000000    -0.45095    
O54      O      0.034930000000     0.088060000000     0.105050000000    -0.45243    
O55      O      0.985160000000     0.050090000000     0.107190000000    -0.453468   
O56      O      0.071740000000     0.038780000000     0.086080000000    -0.454559   
O57      O      0.010510000000     0.968110000000     0.491680000000    -0.454957   
O58      O      0.922780000000     0.977520000000     0.497340000000    -0.453906   
O59      O      0.971210000000     0.016990000000     0.493450000000    -0.453042   
O60      O      0.961920000000     0.928840000000     0.495640000000    -0.454602   
O61      O      0.964480000000     0.929420000000     0.578510000000    -0.453419   
O62      O      0.973680000000     0.017440000000     0.576340000000    -0.452783   
O63      O      0.924890000000     0.978220000000     0.580250000000    -0.454068   
O64      O      0.012700000000     0.968930000000     0.574600000000    -0.457459   
O65      O      0.021440000000     0.372430000000     0.962980000000    -0.453713   
O66      O      0.009240000000     0.398560000000     0.097870000000    -0.453961   
O67      O      0.016620000000     0.427780000000     0.009550000000    -0.45382    
O68      O      0.014110000000     0.343050000000     0.051390000000    -0.453315   
O69      O      0.064990000000     0.343810000000     0.063180000000    -0.455726   
O70      O      0.067500000000     0.428410000000     0.021430000000    -0.454084   
O71      O      0.060110000000     0.398660000000     0.109670000000    -0.456237   
O72      O      0.072330000000     0.373160000000     0.974750000000    -0.454698   
O73      O      0.998170000000     0.311450000000     0.441360000000    -0.450053   
O74      O      0.014430000000     0.326940000000     0.579470000000    -0.452606   
O75      O      0.015200000000     0.361600000000     0.495240000000    -0.453908   
O76      O      0.997260000000     0.276910000000     0.525110000000    -0.451147   
O77      O      0.046770000000     0.264840000000     0.514020000000    -0.452987   
O78      O      0.064660000000     0.349530000000     0.483600000000    -0.454874   
O79      O      0.063880000000     0.314910000000     0.567580000000    -0.455418   
O80      O      0.047690000000     0.299710000000     0.429870000000    -0.456007   


