data_structure

_audit_creation_method RASPA-1.0
_audit_creation_date 2023-5-23
_audit_author_name 'Poobodin Mano'

_cell_length_a    43.8036
_cell_length_b    43.7116
_cell_length_c    29.2268
_cell_angle_alpha 90
_cell_angle_beta  90
_cell_angle_gamma 90
_cell_volume      55961.3

_symmetry_cell_setting          triclinic
_symmetry_space_group_name_Hall 'P 1'
_symmetry_space_group_name_H-M  'P 1'
_symmetry_Int_Tables_number     1

_symmetry_equiv_pos_as_xyz 'x,y,z'

loop_
_atom_site_label
_atom_site_type_symbol
_atom_site_fract_x
_atom_site_fract_y
_atom_site_fract_z
_atom_site_charge
C1       C      0.268350000000     0.997570000000     0.996340000000     0.427958   
C2       C      0.384620000000     0.997560000000     0.996190000000     0.427567   
C3       C      0.326470000000     0.995550000000     0.909150000000     0.427316   
C4       C      0.326580000000     0.999570000000     0.083380000000     0.424209   
C5       C      0.270900000000     0.997490000000     0.496110000000     0.427734   
C6       C      0.387190000000     0.997590000000     0.496400000000     0.427127   
C7       C      0.329080000000     0.999630000000     0.409150000000     0.424262   
C8       C      0.328900000000     0.995460000000     0.583380000000     0.427159   
C9       C      0.997150000000     0.662390000000     0.893930000000     0.428884   
C10      C      0.001170000000     0.666330000000     0.068100000000     0.433966   
C11      C      0.000350000000     0.606110000000     0.984280000000     0.433639   
C12      C      0.997780000000     0.722610000000     0.977780000000     0.429052   
C13      C      0.001300000000     0.663630000000     0.393950000000     0.434547   
C14      C      0.997200000000     0.663730000000     0.568200000000     0.428861   
C15      C      0.999270000000     0.605430000000     0.481770000000     0.429642   
C16      C      0.999220000000     0.721880000000     0.481040000000     0.43051    
C17      C      0.660230000000     0.997000000000     0.908960000000     0.427561   
C18      C      0.660170000000     0.998020000000     0.083260000000     0.427782   
C19      C      0.718220000000     0.997490000000     0.996150000000     0.428355   
C20      C      0.601980000000     0.997530000000     0.996070000000     0.427654   
C21      C      0.662690000000     0.997150000000     0.408960000000     0.427434   
C22      C      0.662820000000     0.997850000000     0.583260000000     0.427598   
C23      C      0.720910000000     0.997420000000     0.496000000000     0.428001   
C24      C      0.604610000000     0.997560000000     0.496210000000     0.427186   
C25      C      0.051280000000     0.997450000000     0.996220000000     0.42733    
C26      C      0.935150000000     0.997350000000     0.996100000000     0.431777   
C27      C      0.992700000000     0.055050000000     0.008270000000     0.430799   
C28      C      0.992830000000     0.939750000000     0.984050000000     0.430935   
C29      C      0.053850000000     0.997100000000     0.495610000000     0.423811   
C30      C      0.937990000000     0.996990000000     0.495440000000     0.424219   
C31      C      0.995910000000     0.055010000000     0.498280000000     0.42636    
C32      C      0.996020000000     0.939060000000     0.492760000000     0.426863   
C33      C      0.001080000000     0.328310000000     0.923200000000     0.433912   
C34      C      0.997060000000     0.332510000000     0.097360000000     0.428877   
C35      C      0.000290000000     0.388670000000     0.006830000000     0.433794   
C36      C      0.997670000000     0.272180000000     0.013720000000     0.428946   
C37      C      0.997100000000     0.330430000000     0.423080000000     0.428992   
C38      C      0.001180000000     0.330360000000     0.597340000000     0.434216   
C39      C      0.999200000000     0.388630000000     0.509640000000     0.429712   
C40      C      0.999070000000     0.272190000000     0.510120000000     0.430258   
C41      C      0.029710000000     0.325910000000     0.849040000000    -0.0213706  
C42      C      0.974420000000     0.331340000000     0.672250000000    -0.0206587  
C43      C      0.029820000000     0.328200000000     0.671500000000    -0.021397   
C44      C      0.018110000000     0.328140000000     0.719280000000     0.0165474  
C45      C      0.986520000000     0.329950000000     0.719460000000     0.00994112 
C46      C      0.969840000000     0.330360000000     0.760280000000    -0.064064   
C47      C      0.974330000000     0.329180000000     0.848300000000    -0.0205835  
C48      C      0.034800000000     0.326610000000     0.760260000000    -0.0672979  
C49      C      0.986470000000     0.328830000000     0.801080000000     0.00989371 
C50      C      0.018060000000     0.326990000000     0.801250000000     0.0165233  
C51      C      0.968370000000     0.332180000000     0.171470000000    -0.0192437  
C52      C      0.023850000000     0.332200000000     0.348230000000    -0.0199891  
C53      C      0.968410000000     0.329830000000     0.348930000000    -0.0193071  
C54      C      0.980090000000     0.331080000000     0.301170000000     0.00876871 
C55      C      0.011700000000     0.332400000000     0.301020000000     0.0174104  
C56      C      0.028360000000     0.333650000000     0.260240000000    -0.0683214  
C57      C      0.023820000000     0.334390000000     0.172220000000    -0.0201589  
C58      C      0.963350000000     0.330960000000     0.260200000000    -0.0627749  
C59      C      0.011680000000     0.333540000000     0.219430000000     0.0174898  
C60      C      0.980070000000     0.332260000000     0.219240000000     0.0087409  
C61      C      0.975870000000     0.222300000000     0.532130000000    -0.0195821  
C62      C      0.014310000000     0.105210000000     0.469180000000    -0.0205854  
C63      C      0.978480000000     0.104080000000     0.532710000000    -0.019782   
C64      C      0.986020000000     0.136050000000     0.520040000000     0.00980077 
C65      C      0.008040000000     0.136600000000     0.485980000000     0.0175835  
C66      C      0.021720000000     0.164050000000     0.472080000000    -0.0679298  
C67      C      0.021620000000     0.222760000000     0.485000000000    -0.0203434  
C68      C      0.973470000000     0.163120000000     0.537530000000    -0.0635649  
C69      C      0.010560000000     0.191030000000     0.491880000000     0.0175119  
C70      C      0.985760000000     0.190670000000     0.521340000000     0.00980734 
C71      C      0.009230000000     0.103250000000     0.047170000000    -0.0204997  
C72      C      0.972610000000     0.223230000000     0.992880000000    -0.0201051  
C73      C      0.018780000000     0.221720000000     0.038980000000    -0.0203219  
C74      C      0.006630000000     0.190300000000     0.031570000000     0.0165475  
C75      C      0.981540000000     0.191250000000     0.002710000000     0.0108039  
C76      C      0.968540000000     0.164510000000     0.985100000000    -0.0644351  
C77      C      0.972810000000     0.105640000000     0.984510000000    -0.0203068  
C78      C      0.017450000000     0.162430000000     0.049310000000    -0.0668229  
C79      C      0.980550000000     0.136730000000     0.000620000000     0.0109969  
C80      C      0.002930000000     0.135610000000     0.034100000000     0.0167893  
C81      C      0.770500000000     0.973910000000     0.518330000000    -0.0190351  
C82      C      0.888390000000     0.015620000000     0.464540000000    -0.0204336  
C83      C      0.888370000000     0.978390000000     0.526360000000    -0.0191971  
C84      C      0.856700000000     0.985700000000     0.512040000000     0.00712146 
C85      C      0.856710000000     0.008480000000     0.479040000000     0.019835   
C86      C      0.829470000000     0.022020000000     0.464090000000    -0.0692385  
C87      C      0.770550000000     0.020750000000     0.473440000000    -0.0202285  
C88      C      0.829440000000     0.972310000000     0.527200000000    -0.0620589  
C89      C      0.802210000000     0.009980000000     0.481630000000     0.019854   
C90      C      0.802180000000     0.984510000000     0.509880000000     0.00717036 
C91      C      0.662850000000     0.025600000000     0.657960000000    -0.0198461  
C92      C      0.661140000000     0.969180000000     0.834310000000    -0.0186219  
C93      C      0.660390000000     0.024780000000     0.834630000000    -0.0196612  
C94      C      0.661200000000     0.013030000000     0.787110000000     0.0192403  
C95      C      0.661460000000     0.981320000000     0.786870000000     0.00679824 
C96      C      0.661890000000     0.964770000000     0.745820000000    -0.0618764  
C97      C      0.662450000000     0.969990000000     0.657560000000    -0.0185208  
C98      C      0.661680000000     0.029990000000     0.746410000000    -0.0691285  
C99      C      0.662210000000     0.981730000000     0.705110000000     0.00668244 
C100     C      0.662270000000     0.013440000000     0.705370000000     0.0194287  
C101     C      0.662290000000     0.025010000000     0.334670000000    -0.0197367  
C102     C      0.660230000000     0.970230000000     0.157580000000    -0.018543   
C103     C      0.661050000000     0.025840000000     0.157920000000    -0.0198294  
C104     C      0.661320000000     0.013690000000     0.205350000000     0.0193995  
C105     C      0.661020000000     0.981980000000     0.205100000000     0.00670402 
C106     C      0.661450000000     0.965020000000     0.245800000000    -0.06193    
C107     C      0.662610000000     0.969390000000     0.334260000000    -0.0187272  
C108     C      0.661750000000     0.030230000000     0.246410000000    -0.0690267  
C109     C      0.662050000000     0.981560000000     0.286850000000     0.006855   
C110     C      0.662040000000     0.013270000000     0.287110000000     0.0192604  
C111     C      0.885580000000     0.980800000000     0.029530000000    -0.0186703  
C112     C      0.767800000000     0.019700000000     0.971160000000    -0.0201975  
C113     C      0.767780000000     0.975230000000     0.021160000000    -0.0189939  
C114     C      0.799440000000     0.985490000000     0.011740000000     0.00739266 
C115     C      0.799450000000     0.009380000000     0.980540000000     0.0199145  
C116     C      0.826700000000     0.020380000000     0.961500000000    -0.06917    
C117     C      0.885590000000     0.013900000000     0.962640000000    -0.0198595  
C118     C      0.826680000000     0.974440000000     0.030730000000    -0.0620349  
C119     C      0.853940000000     0.007720000000     0.978130000000     0.0198315  
C120     C      0.853920000000     0.987040000000     0.014080000000     0.00727805 
C121     C      0.971520000000     0.555730000000     0.485820000000    -0.0192146  
C122     C      0.026980000000     0.438340000000     0.505840000000    -0.0199567  
C123     C      0.971480000000     0.438360000000     0.505660000000    -0.019242   
C124     C      0.983420000000     0.469910000000     0.500600000000     0.00940968 
C125     C      0.015070000000     0.469900000000     0.500650000000     0.0170059  
C126     C      0.031790000000     0.497020000000     0.495760000000    -0.0676641  
C127     C      0.027020000000     0.555710000000     0.485640000000    -0.019967   
C128     C      0.966710000000     0.497050000000     0.495760000000    -0.0633843  
C129     C      0.015090000000     0.524170000000     0.490870000000     0.0169786  
C130     C      0.983440000000     0.524170000000     0.490920000000     0.00942848 
C131     C      0.021770000000     0.771320000000     0.506130000000    -0.0202515  
C132     C      0.978660000000     0.889980000000     0.458290000000    -0.0197102  
C133     C      0.014440000000     0.888870000000     0.521900000000    -0.0204669  
C134     C      0.008190000000     0.857480000000     0.505090000000     0.0174015  
C135     C      0.986200000000     0.858020000000     0.470990000000     0.00964771 
C136     C      0.973670000000     0.830940000000     0.453480000000    -0.0635653  
C137     C      0.976060000000     0.771760000000     0.458920000000    -0.0195116  
C138     C      0.021860000000     0.830030000000     0.519020000000    -0.0679364  
C139     C      0.985950000000     0.803400000000     0.469700000000     0.00972389 
C140     C      0.010730000000     0.803050000000     0.499200000000     0.0174165  
C141     C      0.028610000000     0.556470000000     0.988600000000    -0.0213933  
C142     C      0.973090000000     0.438590000000     0.002600000000    -0.0206243  
C143     C      0.028580000000     0.438290000000     0.002390000000    -0.0212749  
C144     C      0.016790000000     0.470080000000     0.998770000000     0.0167087  
C145     C      0.985150000000     0.470160000000     0.998820000000     0.00980532 
C146     C      0.968460000000     0.497390000000     0.995460000000    -0.0637949  
C147     C      0.973130000000     0.556200000000     0.988360000000    -0.0207708  
C148     C      0.033520000000     0.497380000000     0.995480000000    -0.0674591  
C149     C      0.985160000000     0.524620000000     0.992110000000     0.00983068 
C150     C      0.016800000000     0.524680000000     0.992190000000     0.0167687  
C151     C      0.023910000000     0.660480000000     0.819080000000    -0.0201289  
C152     C      0.968500000000     0.664500000000     0.642350000000    -0.0193896  
C153     C      0.023950000000     0.662110000000     0.643060000000    -0.0200415  
C154     C      0.011800000000     0.662070000000     0.690270000000     0.0173929  
C155     C      0.980180000000     0.663410000000     0.690110000000     0.00879814 
C156     C      0.963440000000     0.663660000000     0.731080000000    -0.0628095  
C157     C      0.968460000000     0.662690000000     0.819810000000    -0.0192781  
C158     C      0.028450000000     0.660950000000     0.731070000000    -0.0683365  
C159     C      0.980160000000     0.662500000000     0.772050000000     0.00874503 
C160     C      0.011780000000     0.661200000000     0.771870000000     0.0174765  
C161     C      0.974420000000     0.665290000000     0.143000000000    -0.0206293  
C162     C      0.029940000000     0.665820000000     0.319790000000    -0.0214303  
C163     C      0.974540000000     0.662680000000     0.319040000000    -0.0207112  
C164     C      0.986630000000     0.664160000000     0.271830000000     0.00995515 
C165     C      0.018220000000     0.665970000000     0.272010000000     0.0165569  
C166     C      0.034910000000     0.667610000000     0.231040000000    -0.0673009  
C167     C      0.029810000000     0.668560000000     0.142260000000    -0.021408   
C168     C      0.969950000000     0.663870000000     0.231020000000    -0.0640849  
C169     C      0.018160000000     0.667340000000     0.190050000000     0.0165313  
C170     C      0.986570000000     0.665500000000     0.190220000000     0.00991226 
C171     C      0.972770000000     0.771530000000     0.998900000000    -0.0198321  
C172     C      0.009390000000     0.891600000000     0.945040000000    -0.0202798  
C173     C      0.973040000000     0.889110000000     0.007780000000    -0.0199708  
C174     C      0.980750000000     0.858040000000     0.991520000000     0.0104795  
C175     C      0.003090000000     0.859220000000     0.957990000000     0.0166432  
C176     C      0.017590000000     0.832420000000     0.942640000000    -0.0669888  
C177     C      0.018900000000     0.773110000000     0.952710000000    -0.0203976  
C178     C      0.968740000000     0.830240000000     0.006960000000    -0.0640487  
C179     C      0.006790000000     0.804520000000     0.960300000000     0.0166033  
C180     C      0.981720000000     0.803530000000     0.989210000000     0.0103844  
C181     C      0.436920000000     0.025410000000     0.496660000000    -0.0198808  
C182     C      0.554870000000     0.969780000000     0.495760000000    -0.0186897  
C183     C      0.554890000000     0.025390000000     0.496870000000    -0.0198268  
C184     C      0.523190000000     0.013450000000     0.496640000000     0.0193968  
C185     C      0.523180000000     0.981740000000     0.496110000000     0.00687302 
C186     C      0.495890000000     0.965000000000     0.495970000000    -0.0618376  
C187     C      0.436920000000     0.969800000000     0.496270000000    -0.0186073  
C188     C      0.495900000000     0.030210000000     0.496850000000    -0.0690093  
C189     C      0.468610000000     0.981750000000     0.496280000000     0.00684689 
C190     C      0.468610000000     0.013460000000     0.496620000000     0.0194346  
C191     C      0.103390000000     0.014750000000     0.527970000000    -0.0205585  
C192     C      0.221360000000     0.974740000000     0.471880000000    -0.0190815  
C193     C      0.221230000000     0.020130000000     0.520000000000    -0.0202945  
C194     C      0.189590000000     0.009660000000     0.510870000000     0.0199251  
C195     C      0.189660000000     0.985110000000     0.480840000000     0.00724314 
C196     C      0.162450000000     0.973520000000     0.462480000000    -0.0620318  
C197     C      0.103510000000     0.979660000000     0.463410000000    -0.0192386  
C198     C      0.162300000000     0.021130000000     0.529120000000    -0.0692118  
C199     C      0.135150000000     0.986450000000     0.478420000000     0.00719793 
C200     C      0.135080000000     0.008100000000     0.513060000000     0.0199521  
C201     C      0.552260000000     0.969740000000     0.995120000000    -0.0186937  
C202     C      0.434340000000     0.025360000000     0.996890000000    -0.0198286  
C203     C      0.434330000000     0.969750000000     0.995380000000    -0.0187232  
C204     C      0.466020000000     0.981700000000     0.995650000000     0.00688307 
C205     C      0.466020000000     0.013410000000     0.996570000000     0.0194094  
C206     C      0.493310000000     0.030150000000     0.997080000000    -0.0690361  
C207     C      0.552270000000     0.025340000000     0.996990000000    -0.0198288  
C208     C      0.493300000000     0.964950000000     0.995100000000    -0.0618613  
C209     C      0.520580000000     0.013400000000     0.996580000000     0.0194426  
C210     C      0.520580000000     0.981690000000     0.995560000000     0.0068939  
C211     C      0.327140000000     0.966730000000     0.657510000000    -0.0185824  
C212     C      0.328160000000     0.022360000000     0.834280000000    -0.019884   
C213     C      0.325420000000     0.966820000000     0.835000000000    -0.018594   
C214     C      0.326450000000     0.978510000000     0.787230000000     0.00620629 
C215     C      0.328010000000     0.010180000000     0.787060000000     0.0198899  
C216     C      0.329260000000     0.026850000000     0.746260000000    -0.0697171  
C217     C      0.329910000000     0.022270000000     0.658260000000    -0.0199441  
C218     C      0.326030000000     0.961720000000     0.746260000000    -0.0613231  
C219     C      0.328860000000     0.010130000000     0.705460000000     0.0199092  
C220     C      0.327280000000     0.978460000000     0.705280000000     0.00618879 
C221     C      0.328380000000     0.972760000000     0.158250000000    -0.021487   
C222     C      0.327370000000     0.028370000000     0.335020000000    -0.0226105  
C223     C      0.330230000000     0.972840000000     0.334260000000    -0.0212898  
C224     C      0.329170000000     0.984980000000     0.287060000000     0.00765745 
C225     C      0.327550000000     0.016640000000     0.287240000000     0.0192544  
C226     C      0.326250000000     0.033390000000     0.246280000000    -0.0688543  
C227     C      0.325590000000     0.028300000000     0.157530000000    -0.0225535  
C228     C      0.329570000000     0.968260000000     0.246250000000    -0.0628562  
C229     C      0.326670000000     0.016610000000     0.205300000000     0.0191984  
C230     C      0.328270000000     0.984940000000     0.205460000000     0.00776382 
C231     C      0.100890000000     0.978760000000     0.027010000000    -0.0189665  
C232     C      0.218730000000     0.020910000000     0.973760000000    -0.0200662  
C233     C      0.218740000000     0.974210000000     0.018960000000    -0.0189752  
C234     C      0.187070000000     0.984830000000     0.010510000000     0.00730188 
C235     C      0.187070000000     0.010270000000     0.982190000000     0.0197204  
C236     C      0.159810000000     0.022410000000     0.964800000000    -0.0691523  
C237     C      0.100890000000     0.016240000000     0.965540000000    -0.0202647  
C238     C      0.159820000000     0.972660000000     0.027850000000    -0.0620328  
C239     C      0.132560000000     0.008950000000     0.979870000000     0.0197599  
C240     C      0.132560000000     0.986090000000     0.012750000000     0.00721012 
H1       H      0.042720000000     0.306910000000     0.663850000000     0.0440242  
H2       H      0.959110000000     0.311630000000     0.665050000000     0.0433951  
H3       H      0.945170000000     0.331850000000     0.760290000000     0.0433587  
H4       H      0.059470000000     0.325250000000     0.760250000000     0.0448067  
H5       H      0.042330000000     0.304300000000     0.855680000000     0.0438375  
H6       H      0.961280000000     0.350510000000     0.855130000000     0.0438506  
H7       H      0.044950000000     0.348160000000     0.665200000000     0.043813   
H8       H      0.961540000000     0.352890000000     0.666360000000     0.043638   
H9       H      0.959150000000     0.309230000000     0.854560000000     0.042924   
H10      H      0.045080000000     0.345540000000     0.856330000000     0.043841   
H11      H      0.955330000000     0.308460000000     0.355180000000     0.0430372  
H12      H      0.038800000000     0.312020000000     0.354110000000     0.0436597  
H13      H      0.053060000000     0.334600000000     0.260250000000     0.0446571  
H14      H      0.938660000000     0.329870000000     0.260180000000     0.0434406  
H15      H      0.954990000000     0.311130000000     0.164190000000     0.0432328  
H16      H      0.036950000000     0.355730000000     0.165950000000     0.0441025  
H17      H      0.953480000000     0.349740000000     0.356580000000     0.0429534  
H18      H      0.037140000000     0.353320000000     0.355470000000     0.0443387  
H19      H      0.038900000000     0.314450000000     0.165400000000     0.0441687  
H20      H      0.953700000000     0.352440000000     0.164820000000     0.0428658  
H21      H      0.953620000000     0.099490000000     0.529490000000     0.0407895  
H22      H      0.006830000000     0.102510000000     0.433070000000     0.0467006  
H23      H      0.040020000000     0.164410000000     0.447200000000     0.0452812  
H24      H      0.955140000000     0.162770000000     0.562360000000     0.0437546  
H25      H      0.952780000000     0.226970000000     0.518010000000     0.0454262  
H26      H      0.044760000000     0.225820000000     0.499870000000     0.0457195  
H27      H      0.985700000000     0.099030000000     0.568380000000     0.0455691  
H28      H      0.038990000000     0.099480000000     0.471560000000     0.0415341  
H29      H      0.022390000000     0.228910000000     0.448110000000     0.0415061  
H30      H      0.975480000000     0.226470000000     0.569640000000     0.0401994  
H31      H      0.041950000000     0.224210000000     0.023950000000     0.0455555  
H32      H      0.971800000000     0.227760000000     0.955470000000     0.0406636  
H33      H      0.950230000000     0.165280000000     0.960240000000     0.0436735  
H34      H      0.036290000000     0.161630000000     0.073250000000     0.0451894  
H35      H      0.033890000000     0.097610000000     0.044170000000     0.0408471  
H36      H      0.948010000000     0.100900000000     0.988260000000     0.0400873  
H37      H      0.019910000000     0.227490000000     0.075970000000     0.0412969  
H38      H      0.949890000000     0.228500000000     0.007850000000     0.0456629  
H39      H      0.979240000000     0.102650000000     0.947990000000     0.0467137  
H40      H      0.001660000000     0.098640000000     0.082790000000     0.0460831  
H41      H      0.893470000000     0.953630000000     0.522330000000     0.0402518  
H42      H      0.892190000000     0.009000000000     0.428280000000     0.0466591  
H43      H      0.829480000000     0.040910000000     0.440140000000     0.0455857  
H44      H      0.829420000000     0.953430000000     0.551170000000     0.0431945  
H45      H      0.766550000000     0.951070000000     0.502710000000     0.0450074  
H46      H      0.766780000000     0.043600000000     0.489100000000     0.0459894  
H47      H      0.892300000000     0.984970000000     0.562610000000     0.0447664  
H48      H      0.893610000000     0.040370000000     0.468510000000     0.041324   
H49      H      0.765330000000     0.022160000000     0.436280000000     0.0416543  
H50      H      0.765410000000     0.972540000000     0.555520000000     0.0400374  
H51      H      0.639450000000     0.038530000000     0.840870000000     0.0445359  
H52      H      0.640650000000     0.954770000000     0.840520000000     0.0425846  
H53      H      0.661940000000     0.940010000000     0.745560000000     0.0429855  
H54      H      0.661560000000     0.054750000000     0.746670000000     0.0450705  
H55      H      0.642460000000     0.039970000000     0.650860000000     0.0438457  
H56      H      0.683030000000     0.955780000000     0.650980000000     0.0425836  
H57      H      0.680680000000     0.039210000000     0.842090000000     0.043714   
H58      H      0.681890000000     0.955350000000     0.841440000000     0.0430289  
H59      H      0.641790000000     0.956030000000     0.650400000000     0.0434865  
H60      H      0.683700000000     0.039470000000     0.651750000000     0.0441835  
H61      H      0.681820000000     0.039650000000     0.150820000000     0.044317   
H62      H      0.680510000000     0.955780000000     0.150150000000     0.0426663  
H63      H      0.661320000000     0.940260000000     0.245530000000     0.0429302  
H64      H      0.661840000000     0.055000000000     0.246680000000     0.0451161  
H65      H      0.682890000000     0.039190000000     0.341240000000     0.043727   
H66      H      0.642190000000     0.955060000000     0.341350000000     0.0426942  
H67      H      0.640580000000     0.040270000000     0.151670000000     0.0437646  
H68      H      0.639280000000     0.956520000000     0.151300000000     0.0433786  
H69      H      0.683430000000     0.955480000000     0.340460000000     0.0429507  
H70      H      0.641650000000     0.038990000000     0.341830000000     0.0446667  
H71      H      0.762580000000     0.975660000000     0.058380000000     0.0396152  
H72      H      0.764010000000     0.043260000000     0.984290000000     0.0460478  
H73      H      0.826710000000     0.037820000000     0.935220000000     0.0453549  
H74      H      0.826670000000     0.956990000000     0.057020000000     0.0429561  
H75      H      0.889410000000     0.989750000000     0.064650000000     0.0447271  
H76      H      0.889390000000     0.004930000000     0.927520000000     0.0468644  
H77      H      0.763930000000     0.951680000000     0.008040000000     0.0450869  
H78      H      0.762590000000     0.019280000000     0.933950000000     0.0412954  
H79      H      0.890830000000     0.038780000000     0.962990000000     0.0402433  
H80      H      0.890760000000     0.955910000000     0.029160000000     0.0391155  
H81      H      0.957150000000     0.431760000000     0.475860000000     0.04374    
H82      H      0.041410000000     0.431710000000     0.476170000000     0.044195   
H83      H      0.056510000000     0.497020000000     0.495750000000     0.0446729  
H84      H      0.942000000000     0.497050000000     0.495750000000     0.0434176  
H85      H      0.957700000000     0.558060000000     0.454130000000     0.0428015  
H86      H      0.041450000000     0.562340000000     0.515320000000     0.0441982  
H87      H      0.957660000000     0.436020000000     0.537360000000     0.0427965  
H88      H      0.040690000000     0.436010000000     0.537650000000     0.0437014  
H89      H      0.040730000000     0.558010000000     0.453840000000     0.0437244  
H90      H      0.957190000000     0.562350000000     0.515620000000     0.0437261  
H91      H      0.039110000000     0.894610000000     0.519560000000     0.0409993  
H92      H      0.985910000000     0.895030000000     0.422640000000     0.0450899  
H93      H      0.955350000000     0.831290000000     0.428620000000     0.0435242  
H94      H      0.040140000000     0.829680000000     0.543940000000     0.0450205  
H95      H      0.044930000000     0.768240000000     0.491290000000     0.0456138  
H96      H      0.952950000000     0.767110000000     0.473000000000     0.0453361  
H97      H      0.006930000000     0.891560000000     0.558000000000     0.0461334  
H98      H      0.953790000000     0.894570000000     0.461450000000     0.0402896  
H99      H      0.975700000000     0.767580000000     0.421410000000     0.0401048  
H100     H      0.022520000000     0.765180000000     0.543020000000     0.0414048  
H101     H      0.042600000000     0.435270000000     0.033760000000     0.043723   
H102     H      0.959160000000     0.435760000000     0.034090000000     0.043504   
H103     H      0.943750000000     0.497400000000     0.995460000000     0.0434692  
H104     H      0.058230000000     0.497370000000     0.995490000000     0.0447086  
H105     H      0.042700000000     0.562590000000     0.018870000000     0.0441562  
H106     H      0.959210000000     0.559050000000     0.956850000000     0.0435024  
H107     H      0.042660000000     0.432140000000     0.972130000000     0.0440441  
H108     H      0.958810000000     0.432580000000     0.972470000000     0.0434469  
H109     H      0.958840000000     0.562200000000     0.018490000000     0.0435746  
H110     H      0.042630000000     0.559490000000     0.957230000000     0.0437264  
H111     H      0.037210000000     0.640950000000     0.635980000000     0.0443536  
H112     H      0.953570000000     0.644580000000     0.634830000000     0.0429727  
H113     H      0.938750000000     0.664760000000     0.731100000000     0.0434207  
H114     H      0.053150000000     0.659990000000     0.731060000000     0.0446319  
H115     H      0.037060000000     0.639160000000     0.825470000000     0.0441144  
H116     H      0.955110000000     0.683780000000     0.826980000000     0.0431738  
H117     H      0.038910000000     0.682250000000     0.637040000000     0.0436538  
H118     H      0.955420000000     0.685860000000     0.635940000000     0.0430168  
H119     H      0.953770000000     0.642470000000     0.826580000000     0.0429004  
H120     H      0.038970000000     0.680450000000     0.825790000000     0.044094   
H121     H      0.961680000000     0.641110000000     0.324830000000     0.0436337  
H122     H      0.045050000000     0.645830000000     0.326000000000     0.0438207  
H123     H      0.059580000000     0.668980000000     0.231050000000     0.0448081  
H124     H      0.945280000000     0.662380000000     0.231010000000     0.0433602  
H125     H      0.961360000000     0.643990000000     0.136040000000     0.043882   
H126     H      0.042430000000     0.690180000000     0.135760000000     0.0438443  
H127     H      0.959220000000     0.682350000000     0.326320000000     0.0434211  
H128     H      0.042850000000     0.687080000000     0.327530000000     0.0440391  
H129     H      0.045180000000     0.648950000000     0.134850000000     0.0438687  
H130     H      0.959250000000     0.685260000000     0.136870000000     0.0429349  
H131     H      0.979530000000     0.892040000000     0.044290000000     0.0463721  
H132     H      0.034060000000     0.897220000000     0.948010000000     0.0401908  
H133     H      0.036400000000     0.833250000000     0.918660000000     0.0449277  
H134     H      0.950460000000     0.829430000000     0.031860000000     0.0434545  
H135     H      0.971990000000     0.766920000000     0.036290000000     0.0406149  
H136     H      0.020000000000     0.767420000000     0.915690000000     0.0412028  
H137     H      0.948230000000     0.893860000000     0.004140000000     0.0396153  
H138     H      0.001790000000     0.896270000000     0.909450000000     0.0452838  
H139     H      0.042080000000     0.770570000000     0.967690000000     0.0454892  
H140     H      0.950030000000     0.766310000000     0.983950000000     0.0454872  
H141     H      0.559410000000     0.039200000000     0.528070000000     0.0442613  
H142     H      0.559420000000     0.955390000000     0.526360000000     0.0429375  
H143     H      0.495890000000     0.940240000000     0.495630000000     0.0429918  
H144     H      0.495910000000     0.054970000000     0.497180000000     0.045131   
H145     H      0.432380000000     0.039420000000     0.527660000000     0.0440364  
H146     H      0.432380000000     0.955770000000     0.465290000000     0.0428745  
H147     H      0.559400000000     0.039780000000     0.466260000000     0.0440732  
H148     H      0.559330000000     0.955970000000     0.464550000000     0.0431165  
H149     H      0.432430000000     0.955620000000     0.527110000000     0.0431347  
H150     H      0.432420000000     0.039610000000     0.465850000000     0.0443214  
H151     H      0.226350000000     0.020380000000     0.557240000000     0.0416194  
H152     H      0.225230000000     0.951440000000     0.485930000000     0.0450376  
H153     H      0.162510000000     0.955440000000     0.437170000000     0.0432899  
H154     H      0.162240000000     0.039210000000     0.554440000000     0.0456144  
H155     H      0.099520000000     0.006920000000     0.563670000000     0.0469523  
H156     H      0.099660000000     0.987480000000     0.427700000000     0.045075   
H157     H      0.225070000000     0.043440000000     0.505960000000     0.046034   
H158     H      0.226570000000     0.974520000000     0.434670000000     0.0399851  
H159     H      0.098400000000     0.954790000000     0.465510000000     0.0404015  
H160     H      0.098160000000     0.039590000000     0.525850000000     0.0414818  
H161     H      0.429840000000     0.955290000000     0.025920000000     0.0430398  
H162     H      0.429830000000     0.039100000000     0.028170000000     0.0442357  
H163     H      0.493310000000     0.054910000000     0.997830000000     0.045111   
H164     H      0.493290000000     0.940190000000     0.994350000000     0.0429774  
H165     H      0.556790000000     0.955160000000     0.025530000000     0.0430163  
H166     H      0.556790000000     0.039910000000     0.966580000000     0.0441087  
H167     H      0.429790000000     0.956020000000     0.964110000000     0.043035   
H168     H      0.429830000000     0.039830000000     0.966360000000     0.0441123  
H169     H      0.556780000000     0.038970000000     0.028380000000     0.044321   
H170     H      0.556760000000     0.956120000000     0.963730000000     0.0431052  
H171     H      0.345240000000     0.951730000000     0.842390000000     0.0427653  
H172     H      0.349370000000     0.035520000000     0.841250000000     0.0445771  
H173     H      0.330490000000     0.051590000000     0.746260000000     0.0450536  
H174     H      0.324800000000     0.936990000000     0.746260000000     0.0429854  
H175     H      0.347120000000     0.951690000000     0.650950000000     0.0426669  
H176     H      0.310110000000     0.037480000000     0.651300000000     0.0440534  
H177     H      0.304050000000     0.953840000000     0.841550000000     0.0427221  
H178     H      0.308170000000     0.037480000000     0.840400000000     0.0439424  
H179     H      0.351300000000     0.035320000000     0.652120000000     0.0445142  
H180     H      0.305920000000     0.953690000000     0.650130000000     0.0427878  
H181     H      0.351650000000     0.959820000000     0.340400000000     0.0436855  
H182     H      0.347340000000     0.043430000000     0.341590000000     0.0442935  
H183     H      0.324980000000     0.058120000000     0.246280000000     0.0452975  
H184     H      0.330810000000     0.943530000000     0.246250000000     0.0430812  
H185     H      0.349590000000     0.959620000000     0.151220000000     0.0438523  
H186     H      0.304200000000     0.041270000000     0.151040000000     0.0445289  
H187     H      0.310460000000     0.957580000000     0.341210000000     0.0434331  
H188     H      0.306150000000     0.041390000000     0.342390000000     0.0446237  
H189     H      0.345380000000     0.043400000000     0.150110000000     0.0443947  
H190     H      0.308400000000     0.957620000000     0.152160000000     0.0433927  
H191     H      0.222640000000     0.951310000000     0.003520000000     0.0449921  
H192     H      0.223870000000     0.022170000000     0.936570000000     0.041779   
H193     H      0.159810000000     0.041300000000     0.940860000000     0.0455963  
H194     H      0.159820000000     0.953760000000     0.051790000000     0.0433097  
H195     H      0.095780000000     0.954010000000     0.022750000000     0.0405461  
H196     H      0.095740000000     0.040970000000     0.969800000000     0.0415709  
H197     H      0.223870000000     0.972970000000     0.056160000000     0.0402188  
H198     H      0.222610000000     0.043820000000     0.989220000000     0.0459323  
H199     H      0.097030000000     0.009810000000     0.929210000000     0.0467486  
H200     H      0.096990000000     0.985190000000     0.063330000000     0.0449974  
N1       N      0.001820000000     0.327530000000     0.876740000000    -0.170645   
N2       N      0.001940000000     0.330140000000     0.643820000000    -0.170568   
N3       N      0.996290000000     0.333300000000     0.143810000000    -0.172131   
N4       N      0.996330000000     0.330650000000     0.376620000000    -0.172235   
N5       N      0.999030000000     0.241190000000     0.509600000000    -0.172341   
N6       N      0.996060000000     0.085990000000     0.499780000000    -0.171456   
N7       N      0.990870000000     0.085740000000     0.014390000000    -0.171725   
N8       N      0.996650000000     0.241160000000     0.015030000000    -0.171767   
N9       N      0.751860000000     0.997380000000     0.495950000000    -0.172613   
N10      N      0.907040000000     0.996970000000     0.495410000000    -0.171914   
N11      N      0.662810000000     0.997900000000     0.629730000000    -0.172722   
N12      N      0.660470000000     0.996890000000     0.862500000000    -0.172805   
N13      N      0.662620000000     0.997100000000     0.362490000000    -0.172693   
N14      N      0.660370000000     0.998130000000     0.129720000000    -0.172809   
N15      N      0.904220000000     0.997330000000     0.996080000000    -0.173187   
N16      N      0.749160000000     0.997480000000     0.996170000000    -0.172644   
N17      N      0.999270000000     0.574390000000     0.483270000000    -0.172342   
N18      N      0.999220000000     0.419680000000     0.508190000000    -0.172286   
N19      N      0.999200000000     0.752870000000     0.481510000000    -0.172496   
N20      N      0.996210000000     0.908080000000     0.491260000000    -0.17177    
N21      N      0.000770000000     0.575060000000     0.986520000000    -0.170434   
N22      N      0.000720000000     0.419720000000     0.004490000000    -0.17046    
N23      N      0.996380000000     0.661620000000     0.847490000000    -0.172191   
N24      N      0.996430000000     0.663590000000     0.614670000000    -0.172153   
N25      N      0.001910000000     0.667020000000     0.114570000000    -0.170592   
N26      N      0.002060000000     0.663840000000     0.347470000000    -0.170617   
N27      N      0.996770000000     0.753620000000     0.976610000000    -0.171926   
N28      N      0.991070000000     0.909050000000     0.977920000000    -0.172111   
N29      N      0.418200000000     0.997600000000     0.496460000000    -0.172526   
N30      N      0.573590000000     0.997580000000     0.496280000000    -0.172466   
N31      N      0.084800000000     0.997160000000     0.495670000000    -0.17171    
N32      N      0.239950000000     0.997460000000     0.496000000000    -0.172551   
N33      N      0.570970000000     0.997540000000     0.996050000000    -0.172607   
N34      N      0.415630000000     0.997560000000     0.996150000000    -0.172607   
N35      N      0.328740000000     0.994680000000     0.629840000000    -0.172644   
N36      N      0.326580000000     0.994790000000     0.862680000000    -0.172621   
N37      N      0.326740000000     0.000330000000     0.129850000000    -0.167076   
N38      N      0.329010000000     0.000410000000     0.362680000000    -0.167118   
N39      N      0.082230000000     0.997480000000     0.996250000000    -0.172584   
N40      N      0.237400000000     0.997570000000     0.996360000000    -0.172699   
Ni1      Ni     0.326470000000     0.024830000000     0.994680000000     1.00254    
Ni2      Ni     0.326470000000     0.970300000000     0.997860000000     0.996162   
Ni3      Ni     0.329000000000     0.024810000000     0.497940000000     1.00228    
Ni4      Ni     0.329050000000     0.970280000000     0.494580000000     0.996192   
Ni5      Ni     0.026370000000     0.664950000000     0.979350000000     0.995075   
Ni6      Ni     0.971980000000     0.663820000000     0.982630000000     1.00339    
Ni7      Ni     0.026450000000     0.663690000000     0.482740000000     1.00327    
Ni8      Ni     0.972040000000     0.663660000000     0.479440000000     0.99889    
Ni9      Ni     0.660140000000     0.024800000000     0.995410000000     1.00306    
Ni10     Ni     0.660120000000     0.970230000000     0.996810000000     0.997102   
Ni11     Ni     0.662810000000     0.024780000000     0.495540000000     1.00281    
Ni12     Ni     0.662750000000     0.970210000000     0.496680000000     0.996562   
Ni13     Ni     0.993230000000     0.001520000000     0.955910000000     1.00681    
Ni14     Ni     0.993200000000     0.993280000000     0.036410000000     0.987474   
Ni15     Ni     0.995950000000     0.997880000000     0.455170000000     0.979835   
Ni16     Ni     0.995890000000     0.996190000000     0.535880000000     0.979641   
Ni17     Ni     0.971890000000     0.330970000000     0.008670000000     1.00357    
Ni18     Ni     0.026280000000     0.329830000000     0.011950000000     0.995196   
Ni19     Ni     0.971930000000     0.330420000000     0.511840000000     0.998729   
Ni20     Ni     0.026350000000     0.330360000000     0.508550000000     1.00317    
O1       O      0.282780000000     0.022900000000     0.992030000000    -0.446331   
O2       O      0.370170000000     0.023060000000     0.996630000000    -0.446503   
O3       O      0.327710000000     0.021460000000     0.929550000000    -0.447934   
O4       O      0.325260000000     0.024570000000     0.060470000000    -0.444093   
O5       O      0.327790000000     0.973670000000     0.062970000000    -0.449458   
O6       O      0.325190000000     0.970560000000     0.932060000000    -0.446917   
O7       O      0.370170000000     0.972070000000     0.995790000000    -0.448606   
O8       O      0.282780000000     0.972230000000     0.000610000000    -0.448235   
O9       O      0.285300000000     0.022830000000     0.500600000000    -0.445965   
O10      O      0.372710000000     0.023080000000     0.496060000000    -0.446157   
O11      O      0.327780000000     0.024610000000     0.432120000000    -0.443955   
O12      O      0.330210000000     0.021380000000     0.563030000000    -0.448078   
O13      O      0.327680000000     0.970480000000     0.560400000000    -0.446643   
O14      O      0.330390000000     0.973720000000     0.429500000000    -0.449648   
O15      O      0.372750000000     0.972080000000     0.496690000000    -0.448306   
O16      O      0.285360000000     0.972180000000     0.491700000000    -0.448183   
O17      O      0.023030000000     0.662090000000     0.914350000000    -0.448465   
O18      O      0.026090000000     0.667680000000     0.045100000000    -0.446944   
O19      O      0.025530000000     0.621080000000     0.983680000000    -0.447174   
O20      O      0.023460000000     0.708730000000     0.974300000000    -0.444469   
O21      O      0.972920000000     0.707580000000     0.982960000000    -0.450705   
O22      O      0.974650000000     0.620110000000     0.983030000000    -0.452399   
O23      O      0.975360000000     0.664160000000     0.047770000000    -0.4534     
O24      O      0.972190000000     0.663570000000     0.916820000000    -0.448013   
O25      O      0.026230000000     0.664890000000     0.416910000000    -0.448239   
O26      O      0.023060000000     0.662500000000     0.547830000000    -0.449664   
O27      O      0.024710000000     0.619910000000     0.481020000000    -0.448269   
O28      O      0.024500000000     0.707440000000     0.485370000000    -0.448374   
O29      O      0.973950000000     0.707430000000     0.476590000000    -0.449405   
O30      O      0.973820000000     0.619910000000     0.481720000000    -0.449607   
O31      O      0.972260000000     0.665010000000     0.545250000000    -0.447247   
O32      O      0.975450000000     0.662300000000     0.414330000000    -0.452855   
O33      O      0.659020000000     0.022590000000     0.930190000000    -0.447992   
O34      O      0.661290000000     0.023370000000     0.061170000000    -0.445327   
O35      O      0.703830000000     0.022890000000     0.992650000000    -0.446437   
O36      O      0.616440000000     0.023010000000     0.997190000000    -0.446632   
O37      O      0.616430000000     0.972040000000     0.994960000000    -0.448759   
O38      O      0.703810000000     0.972100000000     0.999630000000    -0.448583   
O39      O      0.658960000000     0.972440000000     0.062020000000    -0.450165   
O40      O      0.661310000000     0.971650000000     0.931050000000    -0.447486   
O41      O      0.661740000000     0.022710000000     0.430300000000    -0.447916   
O42      O      0.663850000000     0.023240000000     0.561280000000    -0.44546    
O43      O      0.706510000000     0.022860000000     0.492960000000    -0.446097   
O44      O      0.619090000000     0.023030000000     0.497190000000    -0.4463     
O45      O      0.619040000000     0.972050000000     0.495180000000    -0.44835    
O46      O      0.706460000000     0.972030000000     0.499110000000    -0.448356   
O47      O      0.661790000000     0.972290000000     0.561920000000    -0.44994    
O48      O      0.663700000000     0.971750000000     0.430930000000    -0.44747    
O49      O      0.036850000000     0.004400000000     0.959540000000    -0.444809   
O50      O      0.949570000000     0.999380000000     0.958070000000    -0.451816   
O51      O      0.989830000000     0.044210000000     0.967860000000    -0.451962   
O52      O      0.996350000000     0.957600000000     0.949560000000    -0.447845   
O53      O      0.989890000000     0.950580000000     0.024450000000    -0.450413   
O54      O      0.996240000000     0.037210000000     0.042770000000    -0.441705   
O55      O      0.949540000000     0.995340000000     0.034160000000    -0.448048   
O56      O      0.036830000000     0.990480000000     0.032870000000    -0.446001   
O57      O      0.039400000000     0.992520000000     0.458110000000    -0.442381   
O58      O      0.952490000000     0.003110000000     0.458480000000    -0.439185   
O59      O      0.001240000000     0.041300000000     0.460360000000    -0.439657   
O60      O      0.990670000000     0.954330000000     0.456210000000    -0.444875   
O61      O      0.001270000000     0.952770000000     0.530700000000    -0.441905   
O62      O      0.990540000000     0.039740000000     0.534820000000    -0.442439   
O63      O      0.952460000000     0.990880000000     0.532450000000    -0.443809   
O64      O      0.039330000000     0.001640000000     0.533080000000    -0.437765   
O65      O      0.975270000000     0.330530000000     0.943530000000    -0.453433   
O66      O      0.972100000000     0.331320000000     0.074470000000    -0.448099   
O67      O      0.974590000000     0.374680000000     0.008120000000    -0.452446   
O68      O      0.972810000000     0.287210000000     0.008490000000    -0.450633   
O69      O      0.023350000000     0.286050000000     0.017150000000    -0.444427   
O70      O      0.025460000000     0.373680000000     0.007480000000    -0.447316   
O71      O      0.022940000000     0.332780000000     0.076950000000    -0.448434   
O72      O      0.026000000000     0.327000000000     0.946210000000    -0.446993   
O73      O      0.972160000000     0.329140000000     0.446020000000    -0.447251   
O74      O      0.975330000000     0.331720000000     0.576960000000    -0.452675   
O75      O      0.973740000000     0.374180000000     0.509660000000    -0.449591   
O76      O      0.973810000000     0.286650000000     0.514600000000    -0.449375   
O77      O      0.024370000000     0.286610000000     0.505840000000    -0.448206   
O78      O      0.024630000000     0.374140000000     0.510360000000    -0.448361   
O79      O      0.026120000000     0.329100000000     0.574380000000    -0.448037   
O80      O      0.022960000000     0.331610000000     0.443460000000    -0.449681   


