data_structure

_audit_creation_method RASPA-1.0
_audit_creation_date 2023-5-23
_audit_author_name 'Poobodin Mano'

_cell_length_a    29.2432
_cell_length_b    29.2152
_cell_length_c    43.8136
_cell_angle_alpha 89.9996
_cell_angle_beta  90.001
_cell_angle_gamma 120
_cell_volume      32417

_symmetry_cell_setting          triclinic
_symmetry_space_group_name_Hall 'P 1'
_symmetry_space_group_name_H-M  'P 1'
_symmetry_Int_Tables_number     1

_symmetry_equiv_pos_as_xyz 'x,y,z'

loop_
_atom_site_label
_atom_site_type_symbol
_atom_site_fract_x
_atom_site_fract_y
_atom_site_fract_z
_atom_site_charge
C1       C      0.993860000000     0.996170000000     0.271780000000     0.430669   
C2       C      0.993890000000     0.996180000000     0.387970000000     0.430769   
C3       C      0.079590000000     0.084690000000     0.329860000000     0.431452   
C4       C      0.908150000000     0.907670000000     0.329870000000     0.431544   
C5       C      0.906350000000     0.408670000000     0.329460000000     0.431883   
C6       C      0.080600000000     0.582970000000     0.329370000000     0.43189    
C7       C      0.993580000000     0.495870000000     0.387520000000     0.43153    
C8       C      0.993380000000     0.495780000000     0.271320000000     0.431256   
C9       C      0.580640000000     0.082930000000     0.329290000000     0.431881   
C10      C      0.406320000000     0.908700000000     0.329190000000     0.432045   
C11      C      0.493570000000     0.995870000000     0.271140000000     0.431543   
C12      C      0.493390000000     0.995770000000     0.387340000000     0.431541   
C13      C      0.404650000000     0.411180000000     0.329590000000     0.431418   
C14      C      0.583060000000     0.581190000000     0.329550000000     0.431643   
C15      C      0.493820000000     0.496150000000     0.271430000000     0.431965   
C16      C      0.493900000000     0.496220000000     0.387680000000     0.432926   
C17      C      0.081190000000     0.996280000000     0.996570000000     0.429942   
C18      C      0.906880000000     0.996210000000     0.996510000000     0.430036   
C19      C      0.994080000000     0.996250000000     0.938450000000     0.430567   
C20      C      0.993980000000     0.996240000000     0.054650000000     0.430292   
C21      C      0.080720000000     0.496090000000     0.996120000000     0.430616   
C22      C      0.906440000000     0.496090000000     0.996050000000     0.430648   
C23      C      0.993490000000     0.496010000000     0.054190000000     0.430989   
C24      C      0.993670000000     0.496160000000     0.937980000000     0.431265   
C25      C      0.581150000000     0.996210000000     0.995880000000     0.430008   
C26      C      0.406910000000     0.996280000000     0.995960000000     0.429985   
C27      C      0.493980000000     0.996270000000     0.937800000000     0.431332   
C28      C      0.494070000000     0.996210000000     0.054010000000     0.431081   
C29      C      0.406450000000     0.496110000000     0.996100000000     0.430615   
C30      C      0.580720000000     0.496110000000     0.996050000000     0.430544   
C31      C      0.493570000000     0.496140000000     0.937950000000     0.431496   
C32      C      0.493620000000     0.496090000000     0.054210000000     0.4312     
C33      C      0.994100000000     0.996290000000     0.721320000000     0.430842   
C34      C      0.994050000000     0.996290000000     0.605110000000     0.430833   
C35      C      0.994030000000     0.083410000000     0.663210000000     0.431723   
C36      C      0.994110000000     0.909170000000     0.663200000000     0.431731   
C37      C      0.994020000000     0.409130000000     0.662750000000     0.431661   
C38      C      0.994070000000     0.583420000000     0.662780000000     0.431799   
C39      C      0.994040000000     0.496250000000     0.720860000000     0.431616   
C40      C      0.994030000000     0.496290000000     0.604650000000     0.431524   
C41      C      0.496370000000     0.084820000000     0.662550000000     0.431993   
C42      C      0.490720000000     0.907780000000     0.662620000000     0.432041   
C43      C      0.493590000000     0.996370000000     0.720670000000     0.431521   
C44      C      0.493500000000     0.996220000000     0.604480000000     0.431276   
C45      C      0.497780000000     0.411310000000     0.662580000000     0.43201    
C46      C      0.489310000000     0.581280000000     0.662600000000     0.432087   
C47      C      0.493550000000     0.496310000000     0.604470000000     0.433099   
C48      C      0.493530000000     0.496280000000     0.720730000000     0.43191    
C49      C      0.441110000000     0.809000000000     0.661160000000    -0.0201792  
C50      C      0.535610000000     0.679160000000     0.663920000000    -0.0201714  
C51      C      0.439730000000     0.630790000000     0.661440000000    -0.0203165  
C52      C      0.460290000000     0.688810000000     0.661960000000     0.0126165  
C53      C      0.514960000000     0.716090000000     0.663460000000     0.0134849  
C54      C      0.544120000000     0.771330000000     0.664320000000    -0.0662913  
C55      C      0.536950000000     0.855870000000     0.664200000000    -0.0203107  
C56      C      0.431700000000     0.715640000000     0.661080000000    -0.0650954  
C57      C      0.515630000000     0.798040000000     0.663530000000     0.0136791  
C58      C      0.460970000000     0.771110000000     0.661880000000     0.0125099  
C59      C      0.450140000000     0.136730000000     0.664120000000    -0.0203757  
C60      C      0.547360000000     0.361810000000     0.661400000000    -0.0203609  
C61      C      0.451470000000     0.313430000000     0.663880000000    -0.0201968  
C62      C      0.472130000000     0.276500000000     0.663400000000     0.0135344  
C63      C      0.526800000000     0.303790000000     0.661900000000     0.0126342  
C64      C      0.555390000000     0.276960000000     0.661000000000    -0.065119   
C65      C      0.545980000000     0.183600000000     0.661060000000    -0.0201725  
C66      C      0.442970000000     0.221270000000     0.664260000000    -0.0662939  
C67      C      0.526110000000     0.221490000000     0.661790000000     0.0125268  
C68      C      0.471460000000     0.194550000000     0.663450000000     0.0137504  
C69      C      0.946130000000     0.810670000000     0.662750000000    -0.0200006  
C70      C      0.042090000000     0.681940000000     0.662410000000    -0.0202107  
C71      C      0.946100000000     0.633910000000     0.663280000000    -0.0199647  
C72      C      0.966740000000     0.691730000000     0.663050000000     0.0122328  
C73      C      0.021470000000     0.719110000000     0.662800000000     0.0141371  
C74      C      0.050400000000     0.774470000000     0.662970000000    -0.0661957  
C75      C      0.042120000000     0.858710000000     0.663540000000    -0.0200684  
C76      C      0.937830000000     0.718150000000     0.663020000000    -0.0651167  
C77      C      0.021490000000     0.800900000000     0.663170000000     0.0140585  
C78      C      0.966750000000     0.773510000000     0.662960000000     0.0122394  
C79      C      0.946020000000     0.133860000000     0.663550000000    -0.0199734  
C80      C      0.042000000000     0.358650000000     0.663230000000    -0.0201442  
C81      C      0.946010000000     0.310610000000     0.662380000000    -0.0199621  
C82      C      0.966640000000     0.273440000000     0.662770000000     0.0121888  
C83      C      0.021370000000     0.300840000000     0.663010000000     0.0141952  
C84      C      0.050290000000     0.274430000000     0.662990000000    -0.0662098  
C85      C      0.042010000000     0.181910000000     0.662750000000    -0.0201515  
C86      C      0.937720000000     0.218080000000     0.662960000000    -0.0650808  
C87      C      0.021380000000     0.219070000000     0.662950000000     0.0141623  
C88      C      0.966640000000     0.191670000000     0.663170000000     0.0122137  
C89      C      0.454160000000     0.452680000000     0.888280000000    -0.0205297  
C90      C      0.537740000000     0.534580000000     0.770400000000    -0.0205327  
C91      C      0.449320000000     0.457930000000     0.770390000000    -0.0205523  
C92      C      0.468930000000     0.473530000000     0.802070000000     0.0135036  
C93      C      0.518130000000     0.518930000000     0.802080000000     0.0135135  
C94      C      0.542810000000     0.544440000000     0.829340000000    -0.065652   
C95      C      0.532940000000     0.539660000000     0.888290000000    -0.0205746  
C96      C      0.444260000000     0.447990000000     0.829330000000    -0.065617   
C97      C      0.516800000000     0.520330000000     0.856610000000     0.0134937  
C98      C      0.470290000000     0.472050000000     0.856600000000     0.013475   
C99      C      0.537640000000     0.035060000000     0.770300000000    -0.0203935  
C100     C      0.454730000000     0.952640000000     0.888170000000    -0.0201964  
C101     C      0.533050000000     0.039970000000     0.888150000000    -0.0204021  
C102     C      0.516950000000     0.020590000000     0.856490000000     0.0144953  
C103     C      0.470700000000     0.972070000000     0.856500000000     0.0124546  
C104     C      0.444770000000     0.947840000000     0.829250000000    -0.0650367  
C105     C      0.449660000000     0.957730000000     0.770330000000    -0.0201944  
C106     C      0.542770000000     0.044870000000     0.829220000000    -0.0662215  
C107     C      0.469240000000     0.973510000000     0.801990000000     0.0124543  
C108     C      0.518180000000     0.019250000000     0.801970000000     0.0145019  
C109     C      0.855940000000     0.544130000000     0.995650000000    -0.0234255  
C110     C      0.631230000000     0.448080000000     0.995570000000    -0.0233527  
C111     C      0.679220000000     0.544140000000     0.996500000000    -0.0233902  
C112     C      0.716390000000     0.523490000000     0.996170000000     0.0135217  
C113     C      0.689020000000     0.468710000000     0.995890000000     0.0134945  
C114     C      0.715440000000     0.439770000000     0.995970000000    -0.0664729  
C115     C      0.807950000000     0.448060000000     0.996400000000    -0.0233516  
C116     C      0.771720000000     0.552430000000     0.996080000000    -0.0665086  
C117     C      0.770780000000     0.468710000000     0.996110000000     0.0134911  
C118     C      0.798140000000     0.523490000000     0.995940000000     0.0135151  
C119     C      0.131230000000     0.448060000000     0.995730000000    -0.023396   
C120     C      0.355940000000     0.544140000000     0.995680000000    -0.0233631  
C121     C      0.307960000000     0.448080000000     0.996560000000    -0.0233808  
C122     C      0.270790000000     0.468710000000     0.996250000000     0.0135385  
C123     C      0.298150000000     0.523490000000     0.996000000000     0.013504   
C124     C      0.271720000000     0.552430000000     0.996110000000    -0.0664563  
C125     C      0.179210000000     0.544120000000     0.996540000000    -0.023324   
C126     C      0.215450000000     0.439770000000     0.996150000000    -0.0664831  
C127     C      0.216380000000     0.523490000000     0.996240000000     0.013497   
C128     C      0.189020000000     0.468710000000     0.996030000000     0.0135638  
C129     C      0.032700000000     0.540020000000     0.888360000000    -0.0204018  
C130     C      0.950230000000     0.457220000000     0.770480000000    -0.0202048  
C131     C      0.037780000000     0.535200000000     0.770520000000    -0.0204338  
C132     C      0.018290000000     0.519220000000     0.802170000000     0.0144864  
C133     C      0.969610000000     0.473180000000     0.802150000000     0.0125012  
C134     C      0.945160000000     0.447410000000     0.829400000000    -0.0650604  
C135     C      0.954820000000     0.452380000000     0.888320000000    -0.0202036  
C136     C      0.042630000000     0.544990000000     0.829440000000    -0.0661753  
C137     C      0.970840000000     0.471840000000     0.856670000000     0.0125044  
C138     C      0.016830000000     0.520570000000     0.856690000000     0.0144453  
C139     C      0.631650000000     0.948160000000     0.995520000000    -0.023066   
C140     C      0.856360000000     0.044220000000     0.995980000000    -0.0231905  
C141     C      0.808380000000     0.948160000000     0.996810000000    -0.0230921  
C142     C      0.771200000000     0.968800000000     0.996390000000     0.0124804  
C143     C      0.798560000000     0.023580000000     0.996160000000     0.0144575  
C144     C      0.772140000000     0.052510000000     0.996170000000    -0.0670433  
C145     C      0.679640000000     0.044220000000     0.996360000000    -0.0232975  
C146     C      0.715870000000     0.939860000000     0.996160000000    -0.0658812  
C147     C      0.716810000000     0.023580000000     0.996170000000     0.0145041  
C148     C      0.689440000000     0.968790000000     0.995930000000     0.0124615  
C149     C      0.179690000000     0.044330000000     0.996930000000    -0.0233302  
C150     C      0.308430000000     0.948270000000     0.996480000000    -0.0230136  
C151     C      0.356420000000     0.044330000000     0.995660000000    -0.0233453  
C152     C      0.298620000000     0.023690000000     0.996070000000     0.0145349  
C153     C      0.271260000000     0.968910000000     0.996300000000     0.012453   
C154     C      0.215930000000     0.939980000000     0.996290000000    -0.0658186  
C155     C      0.131710000000     0.948270000000     0.996080000000    -0.0230555  
C156     C      0.272200000000     0.052630000000     0.996300000000    -0.0670495  
C157     C      0.189500000000     0.968910000000     0.996280000000     0.0124802  
C158     C      0.216860000000     0.023690000000     0.996520000000     0.0145312  
C159     C      0.033060000000     0.040080000000     0.888810000000    -0.0203389  
C160     C      0.950340000000     0.957300000000     0.770960000000    -0.0198761  
C161     C      0.037890000000     0.035250000000     0.770960000000    -0.0203067  
C162     C      0.018470000000     0.019290000000     0.802630000000     0.0154481  
C163     C      0.969770000000     0.973260000000     0.802620000000     0.011442   
C164     C      0.945370000000     0.947490000000     0.829880000000    -0.0644569  
C165     C      0.955160000000     0.952450000000     0.888800000000    -0.0199376  
C166     C      0.042860000000     0.045050000000     0.829880000000    -0.0667353  
C167     C      0.971110000000     0.971900000000     0.857140000000     0.0114576  
C168     C      0.017110000000     0.020630000000     0.857140000000     0.0154221  
C169     C      0.510840000000     0.543690000000     0.437160000000    -0.0211976  
C170     C      0.463150000000     0.448880000000     0.554980000000    -0.0211873  
C171     C      0.524060000000     0.543730000000     0.554980000000    -0.0211358  
C172     C      0.509240000000     0.523590000000     0.523310000000     0.0142639  
C173     C      0.478120000000     0.468980000000     0.523320000000     0.0143086  
C174     C      0.465590000000     0.439950000000     0.496090000000    -0.065879   
C175     C      0.476930000000     0.448830000000     0.437190000000    -0.0211531  
C176     C      0.521900000000     0.552610000000     0.496070000000    -0.0658819  
C177     C      0.482070000000     0.468960000000     0.468840000000     0.0142666  
C178     C      0.505550000000     0.523570000000     0.468830000000     0.0142896  
C179     C      0.487870000000     0.534470000000     0.221770000000    -0.0205553  
C180     C      0.489570000000     0.452590000000     0.103870000000    -0.0206363  
C181     C      0.497710000000     0.539580000000     0.103880000000    -0.0206636  
C182     C      0.494540000000     0.520240000000     0.135550000000     0.0136303  
C183     C      0.492800000000     0.471950000000     0.135550000000     0.0136333  
C184     C      0.494780000000     0.447870000000     0.162810000000    -0.0655974  
C185     C      0.499680000000     0.457790000000     0.221760000000    -0.0206391  
C186     C      0.492620000000     0.544340000000     0.162820000000    -0.0655988  
C187     C      0.495650000000     0.473410000000     0.190080000000     0.0135833  
C188     C      0.491820000000     0.518820000000     0.190090000000     0.0135425  
C189     C      0.531900000000     0.990270000000     0.437000000000    -0.0213882  
C190     C      0.450090000000     0.992230000000     0.554830000000    -0.0211194  
C191     C      0.536840000000     0.999990000000     0.554840000000    -0.0213373  
C192     C      0.517540000000     0.996850000000     0.523170000000     0.013758   
C193     C      0.469320000000     0.995170000000     0.523160000000     0.013282   
C194     C      0.445150000000     0.996890000000     0.495900000000    -0.0652899  
C195     C      0.454820000000     0.001300000000     0.436970000000    -0.0185484  
C196     C      0.541650000000     0.994960000000     0.495920000000    -0.0661536  
C197     C      0.470610000000     0.997620000000     0.468640000000     0.0123119  
C198     C      0.516140000000     0.994070000000     0.468660000000     0.0140091  
C199     C      0.489200000000     0.952340000000     0.103640000000    -0.0203095  
C200     C      0.488870000000     0.034930000000     0.221490000000    -0.0204186  
C201     C      0.498510000000     0.956960000000     0.221490000000    -0.020179   
C202     C      0.495140000000     0.972980000000     0.189820000000     0.0125001  
C203     C      0.492450000000     0.019030000000     0.189830000000     0.0145515  
C204     C      0.493890000000     0.044850000000     0.162580000000    -0.0661477  
C205     C      0.498880000000     0.039990000000     0.103660000000    -0.0204663  
C206     C      0.493870000000     0.947270000000     0.162560000000    -0.0650424  
C207     C      0.495310000000     0.020480000000     0.135320000000     0.0145972  
C208     C      0.492610000000     0.971740000000     0.135310000000     0.0126127  
C209     C      0.954760000000     0.500820000000     0.437180000000    -0.0202048  
C210     C      0.037740000000     0.501090000000     0.554990000000    -0.0203695  
C211     C      0.950210000000     0.491460000000     0.555030000000    -0.0202291  
C212     C      0.969570000000     0.494860000000     0.523350000000     0.0126051  
C213     C      0.018250000000     0.497540000000     0.523330000000     0.0145276  
C214     C      0.042570000000     0.496100000000     0.496060000000    -0.0661672  
C215     C      0.032620000000     0.491100000000     0.437150000000    -0.0204515  
C216     C      0.945120000000     0.496150000000     0.496110000000    -0.0650393  
C217     C      0.016770000000     0.494690000000     0.468820000000     0.0145781  
C218     C      0.970780000000     0.497410000000     0.468840000000     0.0125752  
C219     C      0.631180000000     0.181470000000     0.329740000000    -0.0202936  
C220     C      0.855830000000     0.310120000000     0.329890000000    -0.0202085  
C221     C      0.807900000000     0.358210000000     0.329050000000    -0.0203688  
C222     C      0.770720000000     0.300390000000     0.329320000000     0.0132496  
C223     C      0.798050000000     0.272960000000     0.329570000000     0.0131187  
C224     C      0.771610000000     0.217580000000     0.329430000000    -0.0656525  
C225     C      0.679100000000     0.133360000000     0.328950000000    -0.020347   
C226     C      0.715400000000     0.273990000000     0.329400000000    -0.0656587  
C227     C      0.716290000000     0.191190000000     0.329280000000     0.013191   
C228     C      0.688960000000     0.218620000000     0.329490000000     0.0131955  
C229     C      0.131120000000     0.681520000000     0.329750000000    -0.020247   
C230     C      0.355770000000     0.810160000000     0.329590000000    -0.0202373  
C231     C      0.307860000000     0.858270000000     0.328790000000    -0.0202521  
C232     C      0.270660000000     0.800440000000     0.329100000000     0.0131158  
C233     C      0.297990000000     0.773010000000     0.329320000000     0.0131922  
C234     C      0.271550000000     0.717640000000     0.329220000000    -0.0656701  
C235     C      0.179050000000     0.633420000000     0.328880000000    -0.0204084  
C236     C      0.215350000000     0.774050000000     0.329260000000    -0.0655697  
C237     C      0.216230000000     0.691250000000     0.329150000000     0.0132843  
C238     C      0.188900000000     0.718670000000     0.329400000000     0.0131219  
C239     C      0.988570000000     0.452110000000     0.103810000000    -0.0212949  
C240     C      0.988530000000     0.534790000000     0.221690000000    -0.0212698  
C241     C      0.998150000000     0.456800000000     0.221660000000    -0.0212718  
C242     C      0.994690000000     0.472800000000     0.190000000000     0.0136528  
C243     C      0.992020000000     0.518850000000     0.190020000000     0.0136652  
C244     C      0.993390000000     0.544660000000     0.162770000000    -0.0658663  
C245     C      0.998270000000     0.539760000000     0.103850000000    -0.0212578  
C246     C      0.993340000000     0.447060000000     0.162730000000    -0.0658312  
C247     C      0.994750000000     0.520270000000     0.135510000000     0.0137176  
C248     C      0.992030000000     0.471520000000     0.135490000000     0.013726   
C249     C      0.033380000000     0.992270000000     0.437610000000    -0.0210758  
C250     C      0.949990000000     0.990820000000     0.555470000000    -0.0209781  
C251     C      0.038050000000     0.001740000000     0.555460000000    -0.0186145  
C252     C      0.018520000000     0.998020000000     0.523790000000     0.0134997  
C253     C      0.969470000000     0.994520000000     0.523810000000     0.0127194  
C254     C      0.944790000000     0.995350000000     0.496550000000    -0.0649713  
C255     C      0.954460000000     0.000140000000     0.437630000000    -0.0184414  
C256     C      0.043160000000     0.997150000000     0.496530000000    -0.0660597  
C257     C      0.970700000000     0.997100000000     0.469290000000     0.0115707  
C258     C      0.017200000000     0.995360000000     0.469280000000     0.01463    
C259     C      0.810020000000     0.855810000000     0.328250000000    -0.0204096  
C260     C      0.682140000000     0.630670000000     0.330760000000    -0.0204613  
C261     C      0.634650000000     0.679110000000     0.328270000000    -0.0202836  
C262     C      0.692230000000     0.716030000000     0.328810000000     0.0134796  
C263     C      0.719590000000     0.688700000000     0.330310000000     0.012621   
C264     C      0.775000000000     0.715510000000     0.331250000000    -0.0651183  
C265     C      0.858940000000     0.808850000000     0.331300000000    -0.0202505  
C266     C      0.718310000000     0.771280000000     0.328000000000    -0.0662576  
C267     C      0.801200000000     0.770990000000     0.330520000000     0.0125058  
C268     C      0.773500000000     0.797970000000     0.328860000000     0.0136548  
C269     C      0.305580000000     0.361690000000     0.330820000000    -0.0204322  
C270     C      0.177720000000     0.136550000000     0.328250000000    -0.0204867  
C271     C      0.128790000000     0.183500000000     0.331310000000    -0.0202373  
C272     C      0.186530000000     0.221370000000     0.330540000000     0.0125509  
C273     C      0.214230000000     0.194390000000     0.328880000000     0.0137568  
C274     C      0.269420000000     0.221090000000     0.328040000000    -0.0662539  
C275     C      0.353080000000     0.313260000000     0.328330000000    -0.0203053  
C276     C      0.212720000000     0.276850000000     0.331290000000    -0.0650807  
C277     C      0.295500000000     0.276340000000     0.328850000000     0.0135345  
C278     C      0.268130000000     0.303670000000     0.330360000000     0.0126346  
C279     C      0.999190000000     0.957490000000     0.222140000000    -0.0209803  
C280     C      0.998420000000     0.039890000000     0.104290000000    -0.021217   
C281     C      0.989460000000     0.952550000000     0.104290000000    -0.0209446  
C282     C      0.992790000000     0.971940000000     0.135960000000     0.0126536  
C283     C      0.995040000000     0.020470000000     0.135960000000     0.014724   
C284     C      0.993400000000     0.044730000000     0.163210000000    -0.0663839  
C285     C      0.988530000000     0.034860000000     0.222140000000    -0.0211004  
C286     C      0.994400000000     0.947670000000     0.163220000000    -0.0652388  
C287     C      0.992270000000     0.019060000000     0.190470000000     0.0146042  
C288     C      0.995490000000     0.973310000000     0.190470000000     0.0126341  
H1       H      0.417010000000     0.612540000000     0.640230000000     0.0431117  
H2       H      0.561570000000     0.685580000000     0.643930000000     0.0436797  
H3       H      0.586810000000     0.792440000000     0.665540000000     0.0438559  
H4       H      0.389010000000     0.694540000000     0.659830000000     0.0439769  
H5       H      0.418900000000     0.804860000000     0.639780000000     0.0437627  
H6       H      0.559360000000     0.873560000000     0.685580000000     0.0438635  
H7       H      0.413920000000     0.611000000000     0.681430000000     0.0434043  
H8       H      0.558420000000     0.683850000000     0.685130000000     0.0437424  
H9       H      0.563370000000     0.875540000000     0.644400000000     0.0431743  
H10      H      0.414950000000     0.803060000000     0.680950000000     0.0431608  
H11      H      0.428670000000     0.308720000000     0.685100000000     0.0437759  
H12      H      0.573170000000     0.381580000000     0.681390000000     0.0434128  
H13      H      0.598070000000     0.298060000000     0.659750000000     0.0440024  
H14      H      0.400280000000     0.200160000000     0.665480000000     0.0439498  
H15      H      0.427730000000     0.119030000000     0.685500000000     0.0440426  
H16      H      0.568170000000     0.187730000000     0.639670000000     0.0437956  
H17      H      0.425510000000     0.307030000000     0.643900000000     0.0437322  
H18      H      0.570070000000     0.380070000000     0.640190000000     0.0431187  
H19      H      0.572160000000     0.189540000000     0.680840000000     0.0431899  
H20      H      0.423720000000     0.117060000000     0.644320000000     0.0433497  
H21      H      0.921120000000     0.614610000000     0.642920000000     0.0431106  
H22      H      0.065750000000     0.687190000000     0.641510000000     0.0441556  
H23      H      0.093140000000     0.795860000000     0.662950000000     0.0440811  
H24      H      0.895090000000     0.696760000000     0.663030000000     0.0438825  
H25      H      0.922390000000     0.805520000000     0.641890000000     0.0439273  
H26      H      0.065840000000     0.877160000000     0.684420000000     0.0439817  
H27      H      0.922400000000     0.615330000000     0.684150000000     0.0439855  
H28      H      0.067080000000     0.687490000000     0.682740000000     0.0431735  
H29      H      0.067080000000     0.878140000000     0.643190000000     0.0430432  
H30      H      0.921200000000     0.805010000000     0.683120000000     0.0429545  
H31      H      0.921020000000     0.305060000000     0.682710000000     0.0430072  
H32      H      0.065710000000     0.377250000000     0.684100000000     0.0441846  
H33      H      0.093030000000     0.295820000000     0.663000000000     0.0442234  
H34      H      0.894980000000     0.196690000000     0.662950000000     0.0438347  
H35      H      0.922320000000     0.115420000000     0.684450000000     0.0439559  
H36      H      0.065740000000     0.187050000000     0.641890000000     0.0441599  
H37      H      0.922340000000     0.305340000000     0.641470000000     0.043966   
H38      H      0.066970000000     0.377940000000     0.642860000000     0.0432857  
H39      H      0.066950000000     0.187600000000     0.683120000000     0.0431471  
H40      H      0.921050000000     0.114400000000     0.643220000000     0.0430556  
H41      H      0.413390000000     0.460950000000     0.766400000000     0.045362   
H42      H      0.547130000000     0.575680000000     0.765390000000     0.0415582  
H43      H      0.580230000000     0.581060000000     0.829350000000     0.0442508  
H44      H      0.406840000000     0.411360000000     0.829330000000     0.0442679  
H45      H      0.413640000000     0.444920000000     0.893300000000     0.0416169  
H46      H      0.573460000000     0.547420000000     0.893300000000     0.0416188  
H47      H      0.439920000000     0.416840000000     0.765360000000     0.0415919  
H48      H      0.573670000000     0.531570000000     0.766390000000     0.0453427  
H49      H      0.531610000000     0.576540000000     0.892300000000     0.0452218  
H50      H      0.455490000000     0.415790000000     0.892260000000     0.0452307  
H51      H      0.531380000000     0.076660000000     0.892190000000     0.0452827  
H52      H      0.414100000000     0.944530000000     0.893220000000     0.0415294  
H53      H      0.407550000000     0.910990000000     0.829260000000     0.0440859  
H54      H      0.579980000000     0.081720000000     0.829210000000     0.0444453  
H55      H      0.546500000000     0.076000000000     0.765310000000     0.0417704  
H56      H      0.440750000000     0.916790000000     0.765300000000     0.0416297  
H57      H      0.573700000000     0.048060000000     0.893120000000     0.041746   
H58      H      0.456430000000     0.915950000000     0.892140000000     0.045113   
H59      H      0.413440000000     0.960240000000     0.766360000000     0.0450856  
H60      H      0.573860000000     0.032580000000     0.766260000000     0.0453646  
H61      H      0.684860000000     0.569200000000     0.976180000000     0.0434965  
H62      H      0.612750000000     0.424420000000     0.974660000000     0.044479   
H63      H      0.694070000000     0.396990000000     0.995930000000     0.0436939  
H64      H      0.793100000000     0.595210000000     0.996120000000     0.0436615  
H65      H      0.874470000000     0.567910000000     0.974800000000     0.0444201  
H66      H      0.802700000000     0.424270000000     0.017260000000     0.0465178  
H67      H      0.684400000000     0.567800000000     0.017410000000     0.0465277  
H68      H      0.611840000000     0.423010000000     0.015890000000     0.0455669  
H69      H      0.802360000000     0.423120000000     0.976030000000     0.0435075  
H70      H      0.875270000000     0.569070000000     0.016020000000     0.0455296  
H71      H      0.302320000000     0.423040000000     0.976230000000     0.0435284  
H72      H      0.374410000000     0.567840000000     0.974780000000     0.0444753  
H73      H      0.293090000000     0.595210000000     0.996090000000     0.0436942  
H74      H      0.194080000000     0.396990000000     0.996170000000     0.0437456  
H75      H      0.112720000000     0.424310000000     0.974860000000     0.0445755  
H76      H      0.184420000000     0.567870000000     0.017420000000     0.0465292  
H77      H      0.302780000000     0.424380000000     0.017450000000     0.0465571  
H78      H      0.375330000000     0.569170000000     0.016010000000     0.045568   
H79      H      0.184820000000     0.569110000000     0.976190000000     0.0435283  
H80      H      0.111880000000     0.423080000000     0.016090000000     0.0456528  
H81      H      0.074260000000     0.533180000000     0.766520000000     0.0453385  
H82      H      0.941850000000     0.416450000000     0.765480000000     0.0416206  
H83      H      0.908140000000     0.410360000000     0.829380000000     0.0440943  
H84      H      0.079640000000     0.582050000000     0.829460000000     0.0444321  
H85      H      0.073440000000     0.548440000000     0.893400000000     0.041752   
H86      H      0.914070000000     0.443960000000     0.893290000000     0.0416042  
H87      H      0.046190000000     0.575980000000     0.765510000000     0.0418414  
H88      H      0.913740000000     0.459220000000     0.766440000000     0.0451907  
H89      H      0.956830000000     0.415860000000     0.892350000000     0.0450593  
H90      H      0.030680000000     0.576530000000     0.892360000000     0.0452982  
H91      H      0.802870000000     0.923150000000     0.976480000000     0.0433995  
H92      H      0.874990000000     0.067980000000     0.975130000000     0.0444839  
H93      H      0.793510000000     0.095290000000     0.996180000000     0.0438212  
H94      H      0.694500000000     0.897080000000     0.996150000000     0.0435102  
H95      H      0.613260000000     0.924460000000     0.974610000000     0.0443355  
H96      H      0.684750000000     0.067960000000     0.017230000000     0.0466176  
H97      H      0.803060000000     0.924440000000     0.017710000000     0.0463877  
H98      H      0.875590000000     0.069210000000     0.016360000000     0.0455407  
H99      H      0.685350000000     0.069210000000     0.976000000000     0.0435806  
H100     H      0.612170000000     0.923130000000     0.015840000000     0.0454715  
H101     H      0.375890000000     0.069330000000     0.015980000000     0.0456785  
H102     H      0.303320000000     0.924510000000     0.017340000000     0.0464178  
H103     H      0.194550000000     0.897190000000     0.996280000000     0.0435297  
H104     H      0.293570000000     0.095410000000     0.996300000000     0.0438712  
H105     H      0.184980000000     0.068030000000     0.017830000000     0.0466273  
H106     H      0.113100000000     0.924520000000     0.975220000000     0.0444451  
H107     H      0.374800000000     0.068050000000     0.974760000000     0.0445611  
H108     H      0.302700000000     0.923280000000     0.976110000000     0.0433978  
H109     H      0.112450000000     0.923280000000     0.016450000000     0.0455266  
H110     H      0.185220000000     0.069360000000     0.976610000000     0.0436281  
H111     H      0.074370000000     0.033240000000     0.766940000000     0.0454016  
H112     H      0.941930000000     0.916520000000     0.765950000000     0.0414777  
H113     H      0.908350000000     0.910440000000     0.829880000000     0.0438714  
H114     H      0.079880000000     0.082100000000     0.829890000000     0.0445861  
H115     H      0.073800000000     0.048480000000     0.893810000000     0.0418482  
H116     H      0.914420000000     0.944040000000     0.893800000000     0.0414674  
H117     H      0.046310000000     0.076040000000     0.765960000000     0.0418653  
H118     H      0.913850000000     0.959320000000     0.766950000000     0.0449629  
H119     H      0.957170000000     0.915930000000     0.892810000000     0.0449363  
H120     H      0.031060000000     0.076600000000     0.892820000000     0.0453707  
H121     H      0.513300000000     0.574380000000     0.560230000000     0.0396979  
H122     H      0.420060000000     0.431850000000     0.558700000000     0.0457725  
H123     H      0.444210000000     0.397170000000     0.496090000000     0.0446398  
H124     H      0.543280000000     0.595390000000     0.496070000000     0.044601   
H125     H      0.484800000000     0.560740000000     0.433370000000     0.0457782  
H126     H      0.502990000000     0.431770000000     0.433480000000     0.045738   
H127     H      0.567130000000     0.560760000000     0.558770000000     0.0457492  
H128     H      0.473890000000     0.418240000000     0.560310000000     0.0397255  
H129     H      0.435580000000     0.418200000000     0.431870000000     0.0397222  
H130     H      0.552220000000     0.574310000000     0.431900000000     0.0397099  
H131     H      0.535890000000     0.576460000000     0.099870000000     0.045571   
H132     H      0.522330000000     0.444820000000     0.098840000000     0.0419568  
H133     H      0.495610000000     0.411240000000     0.162810000000     0.0444115  
H134     H      0.491800000000     0.580970000000     0.162820000000     0.0444011  
H135     H      0.519550000000     0.575560000000     0.226770000000     0.0416294  
H136     H      0.468020000000     0.416710000000     0.226790000000     0.0416764  
H137     H      0.464940000000     0.547340000000     0.098870000000     0.0419747  
H138     H      0.451390000000     0.415720000000     0.099880000000     0.0455853  
H139     H      0.538620000000     0.460800000000     0.225740000000     0.045429   
H140     H      0.448940000000     0.531470000000     0.225780000000     0.045426   
H141     H      0.573790000000     0.038100000000     0.558830000000     0.04577    
H142     H      0.442560000000     0.025200000000     0.559780000000     0.0423087  
H143     H      0.408510000000     0.997630000000     0.495890000000     0.0439542  
H144     H      0.578300000000     0.994240000000     0.495930000000     0.0441686  
H145     H      0.572830000000     0.022230000000     0.432000000000     0.0423845  
H146     H      0.413880000000     0.969290000000     0.432000000000     0.0410366  
H147     H      0.544380000000     0.967050000000     0.559870000000     0.0418261  
H148     H      0.413140000000     0.954140000000     0.558890000000     0.045278   
H149     H      0.457400000000     0.040070000000     0.432910000000     0.0449213  
H150     H      0.529290000000     0.951460000000     0.433000000000     0.0452489  
H151     H      0.536980000000     0.958940000000     0.225540000000     0.0451146  
H152     H      0.521210000000     0.075710000000     0.226530000000     0.0418221  
H153     H      0.493890000000     0.081910000000     0.162580000000     0.044553   
H154     H      0.493850000000     0.910210000000     0.162560000000     0.0442139  
H155     H      0.521560000000     0.943950000000     0.098660000000     0.0418948  
H156     H      0.466560000000     0.048430000000     0.098630000000     0.0421318  
H157     H      0.466150000000     0.916170000000     0.226450000000     0.0416557  
H158     H      0.450380000000     0.032930000000     0.225470000000     0.0454133  
H159     H      0.537390000000     0.076500000000     0.099680000000     0.0455816  
H160     H      0.450730000000     0.915830000000     0.099590000000     0.0454574  
H161     H      0.913710000000     0.452950000000     0.559080000000     0.0453125  
H162     H      0.046150000000     0.468720000000     0.560000000000     0.0419754  
H163     H      0.079570000000     0.496070000000     0.496050000000     0.0447132  
H164     H      0.908110000000     0.496170000000     0.496130000000     0.044349   
H165     H      0.913990000000     0.468440000000     0.432220000000     0.0417825  
H166     H      0.073360000000     0.523440000000     0.432100000000     0.0419467  
H167     H      0.941850000000     0.523860000000     0.560020000000     0.0417611  
H168     H      0.074240000000     0.539610000000     0.558970000000     0.0454247  
H169     H      0.030580000000     0.452550000000     0.433160000000     0.0455113  
H170     H      0.956770000000     0.539340000000     0.433140000000     0.0452361  
H171     H      0.802280000000     0.377570000000     0.349400000000     0.0432302  
H172     H      0.874300000000     0.304880000000     0.350780000000     0.0439846  
H173     H      0.792950000000     0.196170000000     0.329440000000     0.0439962  
H174     H      0.694060000000     0.295410000000     0.329390000000     0.0440714  
H175     H      0.612640000000     0.186670000000     0.350610000000     0.0440512  
H176     H      0.684330000000     0.114850000000     0.308070000000     0.0440956  
H177     H      0.802730000000     0.376760000000     0.308170000000     0.0441247  
H178     H      0.875210000000     0.304490000000     0.309550000000     0.043045   
H179     H      0.684640000000     0.113950000000     0.349300000000     0.0431425  
H180     H      0.611890000000     0.187140000000     0.309380000000     0.0431131  
H181     H      0.302290000000     0.877680000000     0.349140000000     0.0430006  
H182     H      0.374300000000     0.804930000000     0.350450000000     0.0440167  
H183     H      0.292890000000     0.696220000000     0.329210000000     0.0440741  
H184     H      0.194000000000     0.795470000000     0.329280000000     0.0439487  
H185     H      0.112680000000     0.686780000000     0.350640000000     0.0441191  
H186     H      0.184180000000     0.614860000000     0.308000000000     0.0441718  
H187     H      0.302650000000     0.876790000000     0.307910000000     0.0439481  
H188     H      0.375080000000     0.804510000000     0.309220000000     0.0430482  
H189     H      0.184690000000     0.614060000000     0.349230000000     0.0432664  
H190     H      0.111720000000     0.687130000000     0.309410000000     0.0431565  
H191     H      0.036620000000     0.458770000000     0.225670000000     0.0458893  
H192     H      0.020890000000     0.575560000000     0.226700000000     0.0423878  
H193     H      0.993420000000     0.581720000000     0.162790000000     0.0443528  
H194     H      0.993330000000     0.410000000000     0.162720000000     0.0443451  
H195     H      0.020900000000     0.443680000000     0.098810000000     0.0426175  
H196     H      0.965950000000     0.548200000000     0.098840000000     0.042086   
H197     H      0.965790000000     0.416020000000     0.226650000000     0.0418723  
H198     H      0.950050000000     0.532790000000     0.225710000000     0.0454519  
H199     H      0.036780000000     0.576280000000     0.099850000000     0.0460601  
H200     H      0.950080000000     0.415610000000     0.099780000000     0.0456479  
H201     H      0.074240000000     0.040520000000     0.559470000000     0.0449946  
H202     H      0.941070000000     0.022850000000     0.560460000000     0.0422325  
H203     H      0.907440000000     0.994670000000     0.496560000000     0.0438295  
H204     H      0.080510000000     0.997830000000     0.496520000000     0.0441706  
H205     H      0.073860000000     0.025180000000     0.432610000000     0.0423629  
H206     H      0.913980000000     0.967220000000     0.432650000000     0.0409583  
H207     H      0.046990000000     0.969730000000     0.560440000000     0.0411772  
H208     H      0.913810000000     0.952060000000     0.559510000000     0.0451424  
H209     H      0.955620000000     0.038270000000     0.433590000000     0.0448535  
H210     H      0.032210000000     0.954130000000     0.433590000000     0.0453752  
H211     H      0.616620000000     0.683880000000     0.307050000000     0.0437752  
H212     H      0.688220000000     0.610940000000     0.310760000000     0.0434368  
H213     H      0.796560000000     0.694370000000     0.332500000000     0.0439672  
H214     H      0.696750000000     0.792430000000     0.326780000000     0.0438672  
H215     H      0.805360000000     0.873590000000     0.306890000000     0.043908   
H216     H      0.876940000000     0.804640000000     0.352690000000     0.0436843  
H217     H      0.615040000000     0.685490000000     0.348240000000     0.0437003  
H218     H      0.686550000000     0.612340000000     0.351960000000     0.043113   
H219     H      0.879220000000     0.802930000000     0.311520000000     0.0431238  
H220     H      0.803230000000     0.875440000000     0.348060000000     0.0431691  
H221     H      0.108530000000     0.189430000000     0.311520000000     0.0432992  
H222     H      0.182400000000     0.118800000000     0.306880000000     0.0441056  
H223     H      0.290990000000     0.199950000000     0.326810000000     0.0439657  
H224     H      0.191160000000     0.297990000000     0.332530000000     0.0440582  
H225     H      0.299500000000     0.381440000000     0.310820000000     0.0434547  
H226     H      0.372680000000     0.306880000000     0.348310000000     0.0437371  
H227     H      0.110770000000     0.187700000000     0.352690000000     0.043874   
H228     H      0.184500000000     0.116910000000     0.348060000000     0.0433694  
H229     H      0.371120000000     0.308500000000     0.307110000000     0.0438224  
H230     H      0.301170000000     0.380010000000     0.352020000000     0.0431425  
H231     H      0.951110000000     0.915860000000     0.100270000000     0.0455447  
H232     H      0.965890000000     0.048010000000     0.099270000000     0.0421702  
H233     H      0.993020000000     0.081590000000     0.163210000000     0.044518   
H234     H      0.994780000000     0.910810000000     0.163220000000     0.0441558  
H235     H      0.967150000000     0.916560000000     0.227140000000     0.0417537  
H236     H      0.020560000000     0.075790000000     0.227150000000     0.0424086  
H237     H      0.022000000000     0.944430000000     0.099290000000     0.0424278  
H238     H      0.036780000000     0.076580000000     0.100290000000     0.0461558  
H239     H      0.949820000000     0.032390000000     0.226140000000     0.0455092  
H240     H      0.037890000000     0.959960000000     0.226150000000     0.0456942  
N1       N      0.489530000000     0.860710000000     0.662660000000    -0.17161    
N2       N      0.487850000000     0.627020000000     0.662650000000    -0.171698   
N3       N      0.497560000000     0.131880000000     0.662560000000    -0.171589   
N4       N      0.499230000000     0.365570000000     0.662620000000    -0.171704   
N5       N      0.994130000000     0.862710000000     0.663180000000    -0.171921   
N6       N      0.994080000000     0.629890000000     0.662810000000    -0.171897   
N7       N      0.994020000000     0.129860000000     0.663190000000    -0.171936   
N8       N      0.994010000000     0.362660000000     0.662760000000    -0.171878   
N9       N      0.493560000000     0.496150000000     0.906970000000    -0.171247   
N10      N      0.493530000000     0.496270000000     0.751710000000    -0.171305   
N11      N      0.493620000000     0.996400000000     0.751640000000    -0.171648   
N12      N      0.493930000000     0.996290000000     0.906830000000    -0.171615   
N13      N      0.859980000000     0.496090000000     0.996030000000    -0.170858   
N14      N      0.627190000000     0.496110000000     0.996040000000    -0.170782   
N15      N      0.127180000000     0.496090000000     0.996130000000    -0.170818   
N16      N      0.359990000000     0.496110000000     0.996110000000    -0.170839   
N17      N      0.993720000000     0.496190000000     0.907020000000    -0.171676   
N18      N      0.994030000000     0.496220000000     0.751820000000    -0.171714   
N19      N      0.627600000000     0.996190000000     0.995890000000    -0.171044   
N20      N      0.860410000000     0.996200000000     0.996460000000    -0.171051   
N21      N      0.127660000000     0.996290000000     0.996550000000    -0.170983   
N22      N      0.360460000000     0.996290000000     0.996010000000    -0.171068   
N23      N      0.994100000000     0.996260000000     0.907480000000    -0.171782   
N24      N      0.994110000000     0.996280000000     0.752280000000    -0.171914   
N25      N      0.493930000000     0.496250000000     0.418580000000    -0.171172   
N26      N      0.493560000000     0.496320000000     0.573580000000    -0.171284   
N27      N      0.493790000000     0.496140000000     0.240450000000    -0.171273   
N28      N      0.493630000000     0.496080000000     0.085190000000    -0.171012   
N29      N      0.493350000000     0.995760000000     0.418310000000    -0.17173    
N30      N      0.493480000000     0.996160000000     0.573510000000    -0.171243   
N31      N      0.494080000000     0.996190000000     0.084970000000    -0.171457   
N32      N      0.493640000000     0.995910000000     0.240170000000    -0.171635   
N33      N      0.993640000000     0.495910000000     0.418490000000    -0.171603   
N34      N      0.994010000000     0.496300000000     0.573680000000    -0.171604   
N35      N      0.627110000000     0.129390000000     0.329320000000    -0.171512   
N36      N      0.859900000000     0.362200000000     0.329480000000    -0.171554   
N37      N      0.127050000000     0.629440000000     0.329340000000    -0.171509   
N38      N      0.359850000000     0.862240000000     0.329180000000    -0.171596   
N39      N      0.993450000000     0.495970000000     0.085160000000    -0.171002   
N40      N      0.993340000000     0.495780000000     0.240350000000    -0.171178   
N41      N      0.993910000000     0.996190000000     0.418940000000    -0.1719     
N42      N      0.994030000000     0.996290000000     0.574140000000    -0.171899   
N43      N      0.862270000000     0.860620000000     0.329830000000    -0.171479   
N44      N      0.630250000000     0.626930000000     0.329510000000    -0.171526   
N45      N      0.357470000000     0.365440000000     0.329570000000    -0.171513   
N46      N      0.125460000000     0.131740000000     0.329820000000    -0.171389   
N47      N      0.993850000000     0.996170000000     0.240810000000    -0.17142    
N48      N      0.993950000000     0.996220000000     0.085620000000    -0.17118    
Ni1      Ni     0.969380000000     0.018750000000     0.329880000000     0.999495   
Ni2      Ni     0.018360000000     0.973610000000     0.329870000000     0.999648   
Ni3      Ni     0.016990000000     0.472240000000     0.329400000000     1.00147    
Ni4      Ni     0.969960000000     0.519400000000     0.329430000000     0.99934    
Ni5      Ni     0.516960000000     0.972200000000     0.329250000000     0.999004   
Ni6      Ni     0.470000000000     0.019430000000     0.329230000000     1.00152    
Ni7      Ni     0.472590000000     0.521990000000     0.329590000000     1.00074    
Ni8      Ni     0.515130000000     0.470380000000     0.329590000000     1.00061    
Ni9      Ni     0.970520000000     0.949130000000     0.996540000000     0.995404   
Ni10     Ni     0.017550000000     0.043360000000     0.996550000000     0.99868    
Ni11     Ni     0.017110000000     0.543200000000     0.996110000000     0.998518   
Ni12     Ni     0.970040000000     0.448980000000     0.996070000000     0.996198   
Ni13     Ni     0.470480000000     0.949130000000     0.995900000000     0.99659    
Ni14     Ni     0.517580000000     0.043350000000     0.995910000000     0.997523   
Ni15     Ni     0.517120000000     0.543220000000     0.996080000000     0.996416   
Ni16     Ni     0.470060000000     0.449010000000     0.996070000000     0.996608   
Ni17     Ni     0.041150000000     0.019870000000     0.663210000000     1.00256    
Ni18     Ni     0.947000000000     0.972710000000     0.663220000000     0.998935   
Ni19     Ni     0.041110000000     0.519820000000     0.662750000000     1.0013     
Ni20     Ni     0.946970000000     0.472720000000     0.662760000000     1.00052    
Ni21     Ni     0.446510000000     0.973780000000     0.662590000000     0.999126   
Ni22     Ni     0.540590000000     0.018820000000     0.662560000000     1.00163    
Ni23     Ni     0.446480000000     0.470510000000     0.662570000000     1.00129    
Ni24     Ni     0.540600000000     0.522090000000     0.662570000000     1.00153    
O1       O      0.974460000000     0.020700000000     0.286220000000    -0.44859    
O2       O      0.967700000000     0.013730000000     0.373540000000    -0.448711   
O3       O      0.035410000000     0.083790000000     0.331670000000    -0.4484     
O4       O      0.906690000000     0.950730000000     0.328080000000    -0.450015   
O5       O      0.952330000000     0.908560000000     0.331670000000    -0.449095   
O6       O      0.081050000000     0.041620000000     0.328070000000    -0.449205   
O7       O      0.020070000000     0.978630000000     0.373530000000    -0.44881    
O8       O      0.013260000000     0.971650000000     0.286220000000    -0.448713   
O9       O      0.949960000000     0.408330000000     0.331020000000    -0.449845   
O10      O      0.080870000000     0.539290000000     0.327790000000    -0.449582   
O11      O      0.018640000000     0.477070000000     0.373070000000    -0.448865   
O12      O      0.012120000000     0.470630000000     0.285740000000    -0.44888    
O13      O      0.974680000000     0.520950000000     0.285770000000    -0.449248   
O14      O      0.968460000000     0.514630000000     0.373100000000    -0.44923    
O15      O      0.037000000000     0.583300000000     0.330980000000    -0.449094   
O16      O      0.906080000000     0.452340000000     0.327880000000    -0.449495   
O17      O      0.580880000000     0.039240000000     0.327730000000    -0.449125   
O18      O      0.449900000000     0.908330000000     0.330770000000    -0.449553   
O19      O      0.512270000000     0.970700000000     0.285580000000    -0.449274   
O20      O      0.518410000000     0.976900000000     0.372920000000    -0.449372   
O21      O      0.468400000000     0.014650000000     0.372890000000    -0.449086   
O22      O      0.474820000000     0.021000000000     0.285560000000    -0.449023   
O23      O      0.406080000000     0.952390000000     0.327640000000    -0.450065   
O24      O      0.537050000000     0.083300000000     0.330820000000    -0.449685   
O25      O      0.406470000000     0.456010000000     0.330310000000    -0.446721   
O26      O      0.540620000000     0.583660000000     0.328850000000    -0.452631   
O27      O      0.473680000000     0.520000000000     0.285870000000    -0.449232   
O28      O      0.476330000000     0.522420000000     0.373300000000    -0.449052   
O29      O      0.511450000000     0.470010000000     0.373300000000    -0.449088   
O30      O      0.513980000000     0.472320000000     0.285860000000    -0.449158   
O31      O      0.581250000000     0.536360000000     0.330270000000    -0.446744   
O32      O      0.447110000000     0.408710000000     0.328880000000    -0.452439   
O33      O      0.037570000000     0.952310000000     0.994980000000    -0.448538   
O34      O      0.906600000000     0.952260000000     0.998110000000    -0.448888   
O35      O      0.968960000000     0.952360000000     0.952880000000    -0.448771   
O36      O      0.975300000000     0.952350000000     0.040210000000    -0.447038   
O37      O      0.012690000000     0.040130000000     0.040220000000    -0.446389   
O38      O      0.019180000000     0.040150000000     0.952890000000    -0.448049   
O39      O      0.950500000000     0.040180000000     0.994940000000    -0.449123   
O40      O      0.081460000000     0.040230000000     0.998160000000    -0.448746   
O41      O      0.081000000000     0.540050000000     0.997700000000    -0.449291   
O42      O      0.950080000000     0.540050000000     0.994510000000    -0.449677   
O43      O      0.012260000000     0.539920000000     0.039770000000    -0.447003   
O44      O      0.018750000000     0.540040000000     0.952440000000    -0.448457   
O45      O      0.968550000000     0.452250000000     0.952400000000    -0.448764   
O46      O      0.974750000000     0.452130000000     0.039730000000    -0.447347   
O47      O      0.906150000000     0.452120000000     0.997610000000    -0.449128   
O48      O      0.037090000000     0.452130000000     0.994520000000    -0.448603   
O49      O      0.537510000000     0.952250000000     0.994280000000    -0.448923   
O50      O      0.406610000000     0.952310000000     0.997520000000    -0.449057   
O51      O      0.468840000000     0.952380000000     0.952230000000    -0.448771   
O52      O      0.475320000000     0.952320000000     0.039560000000    -0.447282   
O53      O      0.512810000000     0.040110000000     0.039580000000    -0.446902   
O54      O      0.519140000000     0.040150000000     0.952240000000    -0.448457   
O55      O      0.450550000000     0.040230000000     0.994360000000    -0.44863    
O56      O      0.581460000000     0.040170000000     0.997470000000    -0.448789   
O57      O      0.450080000000     0.540070000000     0.994470000000    -0.449009   
O58      O      0.581010000000     0.540070000000     0.997700000000    -0.44907    
O59      O      0.518780000000     0.540010000000     0.952400000000    -0.448522   
O60      O      0.512240000000     0.539980000000     0.039770000000    -0.446765   
O61      O      0.474980000000     0.452220000000     0.039750000000    -0.446908   
O62      O      0.468370000000     0.452250000000     0.952390000000    -0.448451   
O63      O      0.537100000000     0.452160000000     0.994420000000    -0.449057   
O64      O      0.406170000000     0.452160000000     0.997720000000    -0.449137   
O65      O      0.037950000000     0.021410000000     0.706870000000    -0.448651   
O66      O      0.037920000000     0.015130000000     0.619540000000    -0.448564   
O67      O      0.037970000000     0.083750000000     0.661650000000    -0.449654   
O68      O      0.038030000000     0.952830000000     0.664760000000    -0.450036   
O69      O      0.950180000000     0.908830000000     0.661650000000    -0.449853   
O70      O      0.950120000000     0.039750000000     0.664780000000    -0.449406   
O71      O      0.950200000000     0.977460000000     0.619550000000    -0.449229   
O72      O      0.950240000000     0.971170000000     0.706890000000    -0.449138   
O73      O      0.037950000000     0.452770000000     0.664330000000    -0.449529   
O74      O      0.037980000000     0.583730000000     0.661180000000    -0.449596   
O75      O      0.037890000000     0.521390000000     0.706420000000    -0.448955   
O76      O      0.037880000000     0.515030000000     0.619080000000    -0.448927   
O77      O      0.950180000000     0.477550000000     0.619090000000    -0.44921    
O78      O      0.950190000000     0.471120000000     0.706420000000    -0.449401   
O79      O      0.950140000000     0.539780000000     0.664360000000    -0.449853   
O80      O      0.950100000000     0.408820000000     0.661160000000    -0.449901   
O81      O      0.451860000000     0.041810000000     0.664360000000    -0.449695   
O82      O      0.447470000000     0.908720000000     0.660810000000    -0.449251   
O83      O      0.449680000000     0.971860000000     0.706250000000    -0.449274   
O84      O      0.449800000000     0.978740000000     0.618930000000    -0.449237   
O85      O      0.537230000000     0.013750000000     0.618910000000    -0.448916   
O86      O      0.537490000000     0.020850000000     0.706220000000    -0.448903   
O87      O      0.535240000000     0.950800000000     0.664390000000    -0.450673   
O88      O      0.539630000000     0.083880000000     0.660740000000    -0.449349   
O89      O      0.452870000000     0.408850000000     0.663280000000    -0.452995   
O90      O      0.446310000000     0.536480000000     0.661870000000    -0.447193   
O91      O      0.449810000000     0.470130000000     0.618850000000    -0.449062   
O92      O      0.449560000000     0.472460000000     0.706290000000    -0.44929    
O93      O      0.537500000000     0.520100000000     0.706290000000    -0.449339   
O94      O      0.537290000000     0.522490000000     0.618860000000    -0.449177   
O95      O      0.534210000000     0.583740000000     0.663300000000    -0.453219   
O96      O      0.540770000000     0.456110000000     0.661860000000    -0.447165   


