data_structure

_audit_creation_method RASPA-1.0
_audit_creation_date 2023-5-23
_audit_author_name 'Poobodin Mano'

_cell_length_a    43.7063
_cell_length_b    43.7563
_cell_length_c    43.6767
_cell_angle_alpha 89.9993
_cell_angle_beta  89.9995
_cell_angle_gamma 89.9995
_cell_volume      83528.5

_symmetry_cell_setting          triclinic
_symmetry_space_group_name_Hall 'P 1'
_symmetry_space_group_name_H-M  'P 1'
_symmetry_Int_Tables_number     1

_symmetry_equiv_pos_as_xyz 'x,y,z'

loop_
_atom_site_label
_atom_site_type_symbol
_atom_site_fract_x
_atom_site_fract_y
_atom_site_fract_z
_atom_site_charge
C1       C      0.605300000000     0.327410000000     0.982550000000     0.426623   
C2       C      0.721610000000     0.327890000000     0.991440000000     0.42733    
C3       C      0.663300000000     0.269180000000     0.985930000000     0.428533   
C4       C      0.663460000000     0.385510000000     0.987870000000     0.428548   
C5       C      0.387200000000     0.326350000000     0.981050000000     0.426644   
C6       C      0.270950000000     0.321410000000     0.988420000000     0.428119   
C7       C      0.331200000000     0.265950000000     0.982250000000     0.429303   
C8       C      0.326790000000     0.382100000000     0.986920000000     0.427693   
C9       C      0.607030000000     0.660310000000     0.993410000000     0.430618   
C10      C      0.723200000000     0.661960000000     0.999840000000     0.429771   
C11      C      0.664700000000     0.719130000000     0.999630000000     0.42841    
C12      C      0.665900000000     0.602930000000     0.993610000000     0.429447   
C13      C      0.389640000000     0.655000000000     0.991910000000     0.430223   
C14      C      0.273470000000     0.660900000000     0.996960000000     0.430254   
C15      C      0.334680000000     0.715940000000     0.996020000000     0.429353   
C16      C      0.328500000000     0.599670000000     0.992680000000     0.42862    
C17      C      0.667070000000     0.000810000000     0.609280000000     0.432177   
C18      C      0.663060000000     0.993430000000     0.725520000000     0.430925   
C19      C      0.723630000000     0.997960000000     0.669040000000     0.43116    
C20      C      0.607320000000     0.996250000000     0.665220000000     0.431215   
C21      C      0.328520000000     0.999530000000     0.597890000000     0.430814   
C22      C      0.336020000000     0.998400000000     0.714300000000     0.431783   
C23      C      0.274110000000     0.000560000000     0.660320000000     0.434119   
C24      C      0.390260000000     0.997350000000     0.652570000000     0.432161   
C25      C      0.332620000000     0.000800000000     0.379950000000     0.431872   
C26      C      0.332560000000     0.997540000000     0.263460000000     0.431623   
C27      C      0.274630000000     0.000840000000     0.321400000000     0.43216    
C28      C      0.391160000000     0.998040000000     0.321770000000     0.429289   
C29      C      0.662600000000     0.003520000000     0.391510000000     0.432521   
C30      C      0.672650000000     0.998280000000     0.275390000000     0.43126    
C31      C      0.725380000000     0.001940000000     0.338420000000     0.432766   
C32      C      0.609150000000     0.000140000000     0.328500000000     0.432214   
C33      C      0.988730000000     0.659290000000     0.608700000000     0.427109   
C34      C      0.984930000000     0.653040000000     0.725050000000     0.428163   
C35      C      0.989740000000     0.714330000000     0.669490000000     0.427708   
C36      C      0.984220000000     0.598200000000     0.664320000000     0.427326   
C37      C      0.988160000000     0.324730000000     0.616230000000     0.429091   
C38      C      0.991420000000     0.321040000000     0.732730000000     0.429742   
C39      C      0.992790000000     0.264820000000     0.673050000000     0.429945   
C40      C      0.986420000000     0.381020000000     0.675830000000     0.428544   
C41      C      0.993180000000     0.676160000000     0.391350000000     0.427551   
C42      C      0.997230000000     0.677510000000     0.274870000000     0.429086   
C43      C      0.994010000000     0.735020000000     0.333400000000     0.42932    
C44      C      0.996190000000     0.618750000000     0.332640000000     0.42798    
C45      C      0.994690000000     0.344080000000     0.399450000000     0.428861   
C46      C      0.001750000000     0.341720000000     0.283070000000     0.436163   
C47      C      0.999850000000     0.284960000000     0.342800000000     0.426649   
C48      C      0.997100000000     0.401310000000     0.339720000000     0.428844   
C49      C      0.997610000000     0.337280000000     0.065740000000     0.428631   
C50      C      0.995010000000     0.324360000000     0.949920000000     0.432493   
C51      C      0.054180000000     0.325500000000     0.006060000000     0.431405   
C52      C      0.938060000000     0.336190000000     0.009030000000     0.431096   
C53      C      0.994580000000     0.656690000000     0.941960000000     0.43127    
C54      C      0.000350000000     0.669770000000     0.057530000000     0.437159   
C55      C      0.940100000000     0.664610000000     0.002520000000     0.433358   
C56      C      0.056210000000     0.661900000000     0.997280000000     0.429591   
C57      C      0.000840000000     0.067850000000     0.342720000000     0.438553   
C58      C      0.998660000000     0.951940000000     0.332770000000     0.429747   
C59      C      0.057600000000     0.008540000000     0.330390000000     0.432602   
C60      C      0.942030000000     0.010970000000     0.345070000000     0.432791   
C61      C      0.940870000000     0.989440000000     0.670730000000     0.431919   
C62      C      0.057310000000     0.990670000000     0.667800000000     0.432672   
C63      C      0.999630000000     0.931480000000     0.668310000000     0.42778    
C64      C      0.998660000000     0.047860000000     0.670370000000     0.432294   
C65      C      0.668360000000     0.936000000000     0.003250000000     0.43191    
C66      C      0.666640000000     0.052130000000     0.997190000000     0.42816    
C67      C      0.661070000000     0.990600000000     0.942550000000     0.431354   
C68      C      0.673920000000     0.996120000000     0.058190000000     0.431196   
C69      C      0.334380000000     0.048870000000     0.985980000000     0.43238    
C70      C      0.342350000000     0.932860000000     0.990990000000     0.431915   
C71      C      0.331530000000     0.993720000000     0.046340000000     0.432637   
C72      C      0.345360000000     0.988370000000     0.930750000000     0.432562   
C73      C      0.977090000000     0.235050000000     0.328550000000    -0.0212966  
C74      C      0.017550000000     0.117090000000     0.366710000000    -0.0199382  
C75      C      0.981100000000     0.117650000000     0.324660000000    -0.018958   
C76      C      0.988040000000     0.149100000000     0.334780000000     0.00942765 
C77      C      0.010440000000     0.149040000000     0.357250000000     0.0177489  
C78      C      0.024110000000     0.176420000000     0.367050000000    -0.0676502  
C79      C      0.023390000000     0.235570000000     0.359400000000    -0.0223986  
C80      C      0.975110000000     0.176270000000     0.323980000000    -0.0637593  
C81      C      0.012420000000     0.203710000000     0.354700000000     0.0179691  
C82      C      0.987280000000     0.203540000000     0.335360000000     0.00971791 
C83      C      0.979620000000     0.319670000000     0.116410000000    -0.0197104  
C84      C      0.025620000000     0.355800000000     0.232900000000    -0.0219501  
C85      C      0.979780000000     0.324330000000     0.233860000000    -0.0213091  
C86      C      0.989220000000     0.330630000000     0.202030000000     0.0101391  
C87      C      0.014070000000     0.350300000000     0.201260000000     0.0176654  
C88      C      0.024530000000     0.362680000000     0.173430000000    -0.0673098  
C89      C      0.015500000000     0.362080000000     0.114220000000    -0.0205903  
C90      C      0.976190000000     0.319010000000     0.175250000000    -0.0640519  
C91      C      0.010020000000     0.352510000000     0.146530000000     0.0176137  
C92      C      0.987940000000     0.329800000000     0.147550000000     0.00995473 
C93      C      0.968820000000     0.450900000000     0.337150000000    -0.0191093  
C94      C      0.024390000000     0.569080000000     0.332900000000    -0.0199845  
C95      C      0.968770000000     0.568900000000     0.333040000000    -0.0190231  
C96      C      0.980750000000     0.537250000000     0.333900000000     0.0082658  
C97      C      0.012460000000     0.537320000000     0.334020000000     0.0179674  
C98      C      0.029200000000     0.510060000000     0.335440000000    -0.0682185  
C99      C      0.024430000000     0.451160000000     0.338360000000    -0.0198659  
C100     C      0.963990000000     0.509940000000     0.334810000000    -0.0627455  
C101     C      0.012440000000     0.482760000000     0.336510000000     0.0178002  
C102     C      0.980730000000     0.482660000000     0.336020000000     0.00843316 
C103     C      0.016790000000     0.901780000000     0.351540000000    -0.020491   
C104     C      0.971780000000     0.784900000000     0.316650000000    -0.0192029  
C105     C      0.016820000000     0.784380000000     0.349330000000    -0.0205584  
C106     C      0.007830000000     0.816080000000     0.341850000000     0.0193549  
C107     C      0.983420000000     0.816470000000     0.321610000000     0.00782824 
C108     C      0.973040000000     0.843960000000     0.308580000000    -0.0621245  
C109     C      0.981470000000     0.903040000000     0.308540000000    -0.0193764  
C110     C      0.020580000000     0.843060000000     0.353260000000    -0.0694195  
C111     C      0.987240000000     0.871000000000     0.318550000000     0.00797061 
C112     C      0.008970000000     0.870480000000     0.341670000000     0.0192896  
C113     C      0.016370000000     0.695810000000     0.106110000000    -0.0198108  
C114     C      0.975630000000     0.660950000000     0.225150000000    -0.0194971  
C115     C      0.020730000000     0.693490000000     0.225120000000    -0.0201931  
C116     C      0.010450000000     0.687140000000     0.193250000000     0.0174915  
C117     C      0.986050000000     0.666910000000     0.193510000000     0.00972622 
C118     C      0.974750000000     0.653990000000     0.166540000000    -0.0636519  
C119     C      0.981510000000     0.652550000000     0.107970000000    -0.0189927  
C120     C      0.022090000000     0.698790000000     0.165590000000    -0.0674076  
C121     C      0.987680000000     0.664140000000     0.139090000000     0.00960637 
C122     C      0.009220000000     0.687380000000     0.138400000000     0.0176358  
C123     C      0.964330000000     0.340940000000     0.447900000000    -0.0191042  
C124     C      0.016100000000     0.329550000000     0.567180000000    -0.0198874  
C125     C      0.960550000000     0.327040000000     0.565860000000    -0.0191304  
C126     C      0.973210000000     0.331360000000     0.534490000000     0.00785394 
C127     C      0.004870000000     0.332780000000     0.535480000000     0.018481   
C128     C      0.022430000000     0.336910000000     0.509040000000    -0.0690182  
C129     C      0.019830000000     0.343470000000     0.450440000000    -0.0199861  
C130     C      0.957320000000     0.333960000000     0.506660000000    -0.0622029  
C131     C      0.006620000000     0.339560000000     0.481370000000     0.0185772  
C132     C      0.974970000000     0.338110000000     0.480090000000     0.00779566 
C133     C      0.016750000000     0.334560000000     0.781760000000    -0.0203603  
C134     C      0.978300000000     0.298960000000     0.901450000000    -0.0192143  
C135     C      0.014640000000     0.341000000000     0.899440000000    -0.0202526  
C136     C      0.007560000000     0.329940000000     0.868270000000     0.0190178  
C137     C      0.985180000000     0.307500000000     0.869170000000     0.00824691 
C138     C      0.971010000000     0.297210000000     0.842220000000    -0.0623226  
C139     C      0.970290000000     0.304000000000     0.783000000000    -0.0191331  
C140     C      0.020060000000     0.340120000000     0.840590000000    -0.0690064  
C141     C      0.982260000000     0.308910000000     0.814460000000     0.00811009 
C142     C      0.007470000000     0.328120000000     0.813720000000     0.0191502  
C143     C      0.982400000000     0.096740000000     0.694320000000    -0.0192261  
C144     C      0.017020000000     0.216220000000     0.655790000000    -0.0202954  
C145     C      0.973330000000     0.214350000000     0.690230000000    -0.0194419  
C146     C      0.984650000000     0.183140000000     0.683540000000     0.00927004 
C147     C      0.007990000000     0.184100000000     0.662070000000     0.0185136  
C148     C      0.019290000000     0.157280000000     0.648590000000    -0.0680538  
C149     C      0.013950000000     0.098130000000     0.648470000000    -0.0200371  
C150     C      0.974690000000     0.155450000000     0.696180000000    -0.06308    
C151     C      0.007640000000     0.129530000000     0.659680000000     0.0184402  
C152     C      0.987720000000     0.128690000000     0.684360000000     0.00924084 
C153     C      0.017710000000     0.663310000000     0.559540000000    -0.0200847  
C154     C      0.964150000000     0.674470000000     0.440640000000    -0.0192708  
C155     C      0.019750000000     0.673600000000     0.441700000000    -0.0199563  
C156     C      0.007230000000     0.671260000000     0.473140000000     0.0178293  
C157     C      0.975520000000     0.671550000000     0.472560000000     0.00836059 
C158     C      0.958320000000     0.668880000000     0.499510000000    -0.0627018  
C159     C      0.962110000000     0.662840000000     0.558410000000    -0.0191381  
C160     C      0.023520000000     0.668660000000     0.500670000000    -0.0682457  
C161     C      0.974610000000     0.666130000000     0.527040000000     0.0082076  
C162     C      0.006320000000     0.666210000000     0.527640000000     0.0179546  
C163     C      0.955500000000     0.548580000000     0.666350000000    -0.0221938  
C164     C      0.012450000000     0.431320000000     0.673360000000    -0.01305    
C165     C      0.956900000000     0.430190000000     0.675720000000    -0.0220164  
C166     C      0.968160000000     0.462170000000     0.672700000000     0.0166394  
C167     C      0.999830000000     0.462580000000     0.671240000000     0.00359106 
C168     C      0.016170000000     0.489830000000     0.667910000000    -0.054554   
C169     C      0.011010000000     0.548290000000     0.663160000000    -0.0129841  
C170     C      0.951050000000     0.489330000000     0.671180000000    -0.0685742  
C171     C      0.999150000000     0.516830000000     0.666250000000     0.00353487 
C172     C      0.967480000000     0.516750000000     0.667970000000     0.0166978  
C173     C      0.971190000000     0.764970000000     0.651650000000    -0.0196558  
C174     C      0.014420000000     0.881270000000     0.690940000000    -0.0206226  
C175     C      0.983500000000     0.882320000000     0.644670000000    -0.0194698  
C176     C      0.987810000000     0.850460000000     0.655530000000     0.00882468 
C177     C      0.007280000000     0.849750000000     0.680570000000     0.0183506  
C178     C      0.017750000000     0.821990000000     0.692780000000    -0.0682579  
C179     C      0.013770000000     0.762920000000     0.687410000000    -0.0205382  
C180     C      0.974230000000     0.823720000000     0.644220000000    -0.0629627  
C181     C      0.005840000000     0.795110000000     0.679950000000     0.0182528  
C182     C      0.983100000000     0.796100000000     0.657860000000     0.00886624 
C183     C      0.005500000000     0.632670000000     0.774190000000    -0.013614   
C184     C      0.972700000000     0.674500000000     0.892690000000    -0.0224207  
C185     C      0.005420000000     0.629560000000     0.892750000000    -0.00983459 
C186     C      0.996680000000     0.638140000000     0.860960000000     0.00246846 
C187     C      0.976300000000     0.662410000000     0.861250000000     0.0182092  
C188     C      0.962840000000     0.673390000000     0.834280000000    -0.0698034  
C189     C      0.961990000000     0.667280000000     0.775230000000    -0.0224751  
C190     C      0.007940000000     0.626370000000     0.833280000000    -0.0534058  
C191     C      0.972390000000     0.660020000000     0.806760000000     0.0180006  
C192     C      0.995780000000     0.638640000000     0.806180000000     0.00317365 
C193     C      0.775440000000     0.980350000000     0.356290000000    -0.0207151  
C194     C      0.891900000000     0.031500000000     0.328720000000    -0.0218261  
C195     C      0.893270000000     0.992920000000     0.368740000000    -0.0210323  
C196     C      0.861210000000     0.998680000000     0.358550000000     0.0115925  
C197     C      0.860590000000     0.022160000000     0.337280000000     0.016283   
C198     C      0.833110000000     0.033780000000     0.325820000000    -0.0676596  
C199     C      0.774490000000     0.027820000000     0.327380000000    -0.0210454  
C200     C      0.834330000000     0.982840000000     0.366470000000    -0.0640828  
C201     C      0.806220000000     0.019340000000     0.335310000000     0.0158508  
C202     C      0.806820000000     0.993400000000     0.353510000000     0.0115069  
C203     C      0.690830000000     0.019860000000     0.225650000000    -0.0204545  
C204     C      0.658000000000     0.974990000000     0.108250000000    -0.0207474  
C205     C      0.698300000000     0.013260000000     0.107140000000    -0.0206192  
C206     C      0.689790000000     0.005520000000     0.139270000000     0.0143742  
C207     C      0.668470000000     0.982060000000     0.139630000000     0.0134164  
C208     C      0.658550000000     0.968760000000     0.167040000000    -0.0656597  
C209     C      0.662860000000     0.971840000000     0.226040000000    -0.0205698  
C210     C      0.698890000000     0.019920000000     0.166540000000    -0.065613   
C211     C      0.669520000000     0.981610000000     0.194240000000     0.0133079  
C212     C      0.687370000000     0.007790000000     0.194020000000     0.0140771  
C213     C      0.559750000000     0.971620000000     0.325420000000    -0.019927   
C214     C      0.440900000000     0.025620000000     0.322380000000    -0.0203556  
C215     C      0.441240000000     0.970090000000     0.321600000000    -0.0203276  
C216     C      0.473020000000     0.982310000000     0.322350000000     0.0117634  
C217     C      0.472710000000     0.013980000000     0.322600000000     0.014466   
C218     C      0.499840000000     0.031060000000     0.323290000000    -0.066416   
C219     C      0.558970000000     0.027150000000     0.324920000000    -0.0204939  
C220     C      0.500620000000     0.965940000000     0.323140000000    -0.0645696  
C221     C      0.527390000000     0.014720000000     0.323850000000     0.0146859  
C222     C      0.527800000000     0.983050000000     0.323960000000     0.0115154  
C223     C      0.107580000000     0.987800000000     0.347120000000    -0.0209854  
C224     C      0.225100000000     0.024120000000     0.304880000000    -0.0210886  
C225     C      0.224720000000     0.979380000000     0.337900000000    -0.0209863  
C226     C      0.193150000000     0.990110000000     0.331900000000     0.0131816  
C227     C      0.193180000000     0.014290000000     0.311390000000     0.0142921  
C228     C      0.165710000000     0.026370000000     0.299840000000    -0.0658568  
C229     C      0.106260000000     0.022170000000     0.303400000000    -0.0211968  
C230     C      0.166030000000     0.979530000000     0.345190000000    -0.0657283  
C231     C      0.138380000000     0.014210000000     0.311580000000     0.0145616  
C232     C      0.138770000000     0.992920000000     0.335090000000     0.0132051  
C233     C      0.347120000000     0.019730000000     0.213250000000    -0.0208146  
C234     C      0.306200000000     0.979900000000     0.095750000000    -0.0204026  
C235     C      0.348990000000     0.015400000000     0.095640000000    -0.0210099  
C236     C      0.338910000000     0.009080000000     0.127270000000     0.0158969  
C237     C      0.315950000000     0.987230000000     0.127600000000     0.0119537  
C238     C      0.306260000000     0.973880000000     0.155210000000    -0.0642472  
C239     C      0.314930000000     0.974420000000     0.214270000000    -0.0202317  
C240     C      0.350510000000     0.021720000000     0.154290000000    -0.0672807  
C241     C      0.319280000000     0.985320000000     0.182310000000     0.0116656  
C242     C      0.339280000000     0.009900000000     0.181810000000     0.0157291  
C243     C      0.327020000000     0.027810000000     0.548330000000    -0.0202857  
C244     C      0.332070000000     0.973390000000     0.429760000000    -0.0203311  
C245     C      0.330580000000     0.028920000000     0.429860000000    -0.0208022  
C246     C      0.329590000000     0.016790000000     0.461650000000     0.0142146  
C247     C      0.330260000000     0.985130000000     0.461490000000     0.0121632  
C248     C      0.329390000000     0.968130000000     0.488660000000    -0.0651892  
C249     C      0.327250000000     0.972260000000     0.547760000000    -0.0201306  
C250     C      0.328390000000     0.033260000000     0.489180000000    -0.0660298  
C251     C      0.327970000000     0.984570000000     0.516120000000     0.0123204  
C252     C      0.327650000000     0.016250000000     0.516400000000     0.0140291  
C253     C      0.328490000000     0.967590000000     0.880840000000    -0.0213414  
C254     C      0.353520000000     0.020150000000     0.764350000000    -0.0204176  
C255     C      0.324800000000     0.972570000000     0.763440000000    -0.02037    
C256     C      0.333170000000     0.980820000000     0.795140000000     0.0134751  
C257     C      0.351270000000     0.006830000000     0.795660000000     0.0138752  
C258     C      0.364760000000     0.017100000000     0.823030000000    -0.0652231  
C259     C      0.368340000000     0.006320000000     0.881760000000    -0.0198949  
C260     C      0.324300000000     0.966020000000     0.822050000000    -0.0662384  
C261     C      0.357450000000     0.000940000000     0.849880000000     0.0138528  
C262     C      0.336270000000     0.977370000000     0.849450000000     0.0140123  
C263     C      0.108280000000     0.977360000000     0.689480000000    -0.0204314  
C264     C      0.223210000000     0.022830000000     0.647680000000    -0.0210778  
C265     C      0.226100000000     0.978630000000     0.681300000000    -0.0209201  
C266     C      0.193850000000     0.987680000000     0.676260000000     0.013072   
C267     C      0.192100000000     0.011350000000     0.655230000000     0.0150089  
C268     C      0.163930000000     0.020460000000     0.642840000000    -0.0661514  
C269     C      0.105470000000     0.009810000000     0.644360000000    -0.0205112  
C270     C      0.167540000000     0.975070000000     0.689520000000    -0.065371   
C271     C      0.137650000000     0.006280000000     0.654600000000     0.0148586  
C272     C      0.139340000000     0.985910000000     0.678850000000     0.0130651  
C273     C      0.668010000000     0.030570000000     0.560150000000    -0.0206975  
C274     C      0.659840000000     0.976700000000     0.441390000000    -0.0205117  
C275     C      0.662130000000     0.032190000000     0.441290000000    -0.0206696  
C276     C      0.662770000000     0.020190000000     0.473190000000     0.0136031  
C277     C      0.661370000000     0.988550000000     0.473000000000     0.0128883  
C278     C      0.662070000000     0.971510000000     0.500040000000    -0.0658688  
C279     C      0.665260000000     0.975100000000     0.558780000000    -0.0204637  
C280     C      0.665050000000     0.036570000000     0.500790000000    -0.0654775  
C281     C      0.664250000000     0.987790000000     0.527470000000     0.0128405  
C282     C      0.665760000000     0.019430000000     0.528000000000     0.0136236  
C283     C      0.557690000000     0.023660000000     0.661350000000    -0.0201934  
C284     C      0.439670000000     0.968640000000     0.652550000000    -0.0200021  
C285     C      0.440340000000     0.024190000000     0.651560000000    -0.020193   
C286     C      0.471810000000     0.011950000000     0.653740000000     0.0147806  
C287     C      0.471530000000     0.980280000000     0.654350000000     0.0117615  
C288     C      0.498670000000     0.963400000000     0.657170000000    -0.0645898  
C289     C      0.557660000000     0.968100000000     0.662520000000    -0.0198528  
C290     C      0.499080000000     0.028540000000     0.655870000000    -0.0667762  
C291     C      0.526030000000     0.980030000000     0.659250000000     0.0117068  
C292     C      0.526150000000     0.011710000000     0.658600000000     0.014812   
C293     C      0.773830000000     0.018070000000     0.687640000000    -0.020521   
C294     C      0.890710000000     0.976470000000     0.647260000000    -0.0206018  
C295     C      0.891700000000     0.005300000000     0.694840000000    -0.0193745  
C296     C      0.859840000000     0.002160000000     0.683360000000     0.0138494  
C297     C      0.859240000000     0.983850000000     0.657470000000     0.0133329  
C298     C      0.831620000000     0.974060000000     0.644580000000    -0.0658155  
C299     C      0.772810000000     0.977250000000     0.649870000000    -0.0208237  
C300     C      0.832950000000     0.015260000000     0.695120000000    -0.0656007  
C301     C      0.804700000000     0.985480000000     0.657640000000     0.0133239  
C302     C      0.805350000000     0.007150000000     0.680790000000     0.0141663  
C303     C      0.643320000000     0.012660000000     0.775420000000    -0.0203092  
C304     C      0.678790000000     0.969700000000     0.892780000000    -0.021238   
C305     C      0.635320000000     0.004360000000     0.893490000000    -0.0183706  
C306     C      0.644840000000     0.997530000000     0.861500000000     0.0114901  
C307     C      0.668180000000     0.976090000000     0.861250000000     0.0144859  
C308     C      0.679740000000     0.964140000000     0.833820000000    -0.0662098  
C309     C      0.675990000000     0.967700000000     0.774700000000    -0.0205069  
C310     C      0.634760000000     0.011290000000     0.834290000000    -0.0641391  
C311     C      0.668000000000     0.976270000000     0.806590000000     0.0133162  
C312     C      0.647680000000     0.000590000000     0.806870000000     0.0137139  
C313     C      0.352190000000     0.765320000000     0.019220000000    -0.0203138  
C314     C      0.323150000000     0.883140000000     0.972310000000    -0.0196949  
C315     C      0.364630000000     0.883350000000     0.009390000000    -0.0202989  
C316     C      0.353860000000     0.851540000000     0.003410000000     0.016898   
C317     C      0.331720000000     0.851620000000     0.980690000000     0.010442   
C318     C      0.319830000000     0.824520000000     0.968650000000    -0.0642815  
C319     C      0.321770000000     0.765820000000     0.972610000000    -0.0197924  
C320     C      0.362280000000     0.824230000000     0.018180000000    -0.0668513  
C321     C      0.329770000000     0.797260000000     0.981970000000     0.0104634  
C322     C      0.348840000000     0.797080000000     0.007320000000     0.01678    
C323     C      0.223890000000     0.648100000000     0.021920000000    -0.0202582  
C324     C      0.105880000000     0.682090000000     0.978100000000    -0.0196615  
C325     C      0.105860000000     0.641050000000     0.015640000000    -0.0203286  
C326     C      0.137560000000     0.651160000000     0.008970000000     0.0177244  
C327     C      0.137590000000     0.673050000000     0.986020000000     0.00963626 
C328     C      0.164920000000     0.683390000000     0.972870000000    -0.0635026  
C329     C      0.223860000000     0.677750000000     0.974820000000    -0.019424   
C330     C      0.164820000000     0.641570000000     0.022930000000    -0.0678929  
C331     C      0.192180000000     0.672250000000     0.985510000000     0.00955068 
C332     C      0.192140000000     0.653550000000     0.011130000000     0.0178058  
C333     C      0.556850000000     0.657180000000     0.019540000000    -0.0198063  
C334     C      0.439190000000     0.655690000000     0.963080000000    -0.0190156  
C335     C      0.439550000000     0.652430000000     0.018650000000    -0.0198626  
C336     C      0.471070000000     0.653970000000     0.006620000000     0.0181349  
C337     C      0.471090000000     0.655840000000     0.974940000000     0.0083261  
C338     C      0.498530000000     0.658060000000     0.958360000000    -0.0625162  
C339     C      0.557800000000     0.660440000000     0.963970000000    -0.0189979  
C340     C      0.498190000000     0.654200000000     0.023530000000    -0.0688647  
C341     C      0.525810000000     0.658230000000     0.975360000000     0.00834522 
C342     C      0.525490000000     0.656360000000     0.007040000000     0.0181092  
C343     C      0.649240000000     0.768310000000     0.024030000000    -0.022195   
C344     C      0.691530000000     0.886330000000     0.988570000000    -0.0210705  
C345     C      0.646180000000     0.886560000000     0.020830000000    -0.0217811  
C346     C      0.656380000000     0.854790000000     0.014700000000     0.0179629  
C347     C      0.680800000000     0.854740000000     0.994440000000     0.00984821 
C348     C      0.691510000000     0.827560000000     0.981330000000    -0.0636818  
C349     C      0.683380000000     0.768960000000     0.980060000000    -0.021222   
C350     C      0.644400000000     0.827470000000     0.026480000000    -0.0681284  
C351     C      0.678040000000     0.800350000000     0.991530000000     0.00987781 
C352     C      0.656770000000     0.800180000000     0.015070000000     0.0181982  
C353     C      0.772980000000     0.680920000000     0.980260000000    -0.0210439  
C354     C      0.890560000000     0.642950000000     0.020400000000    -0.0218259  
C355     C      0.890540000000     0.688150000000     0.987960000000    -0.0208827  
C356     C      0.858870000000     0.677780000000     0.994140000000     0.00976578 
C357     C      0.858860000000     0.653460000000     0.014480000000     0.0181804  
C358     C      0.831520000000     0.641760000000     0.026500000000    -0.0683836  
C359     C      0.772380000000     0.646980000000     0.024370000000    -0.0220809  
C360     C      0.831690000000     0.688650000000     0.981160000000    -0.0637108  
C361     C      0.804250000000     0.654310000000     0.015230000000     0.0183339  
C362     C      0.804430000000     0.675470000000     0.991600000000     0.00982805 
C363     C      0.325970000000     0.550640000000     0.963560000000    -0.0192502  
C364     C      0.325470000000     0.431100000000     0.016320000000    -0.0201688  
C365     C      0.325430000000     0.432620000000     0.960690000000    -0.0192282  
C366     C      0.325190000000     0.463990000000     0.973450000000     0.00891996 
C367     C      0.325340000000     0.463170000000     0.005180000000     0.0173004  
C368     C      0.325800000000     0.490090000000     0.022590000000    -0.0678186  
C369     C      0.326860000000     0.549230000000     0.019180000000    -0.0199264  
C370     C      0.325250000000     0.491710000000     0.957360000000    -0.0631057  
C371     C      0.325910000000     0.517820000000     0.006480000000     0.0171556  
C372     C      0.325530000000     0.518610000000     0.974760000000     0.00900962 
C373     C      0.104110000000     0.299890000000     0.018100000000    -0.0221155  
C374     C      0.219660000000     0.336430000000     0.969200000000    -0.0197011  
C375     C      0.222930000000     0.303310000000     0.013770000000    -0.0205238  
C376     C      0.190420000000     0.309280000000     0.005630000000     0.0172202  
C377     C      0.188790000000     0.329830000000     0.981530000000     0.00993565 
C378     C      0.160920000000     0.342680000000     0.972460000000    -0.0638151  
C379     C      0.102950000000     0.343610000000     0.983780000000    -0.021149   
C380     C      0.163810000000     0.297290000000     0.019150000000    -0.0674079  
C381     C      0.134560000000     0.332130000000     0.987270000000     0.0100496  
C382     C      0.135660000000     0.308610000000     0.008490000000     0.0176052  
C383     C      0.349780000000     0.216710000000     0.003340000000    -0.0144315  
C384     C      0.309780000000     0.097620000000     0.968760000000    -0.0221067  
C385     C      0.354310000000     0.099290000000     0.002100000000    -0.0108485  
C386     C      0.343770000000     0.130520000000     0.994750000000     0.00437798 
C387     C      0.319690000000     0.129750000000     0.974110000000     0.017026   
C388     C      0.308510000000     0.156710000000     0.960670000000    -0.0685367  
C389     C      0.315110000000     0.215960000000     0.959800000000    -0.0221351  
C390     C      0.355300000000     0.158070000000     0.006120000000    -0.055603   
C391     C      0.321460000000     0.184360000000     0.970700000000     0.0166877  
C392     C      0.342800000000     0.184950000000     0.994170000000     0.00527119 
C393     C      0.664350000000     0.435850000000     0.961070000000    -0.0190952  
C394     C      0.665210000000     0.552400000000     0.019550000000    -0.0197935  
C395     C      0.666830000000     0.554040000000     0.963940000000    -0.0191493  
C396     C      0.666000000000     0.521940000000     0.975010000000     0.00877108 
C397     C      0.665200000000     0.521100000000     0.006730000000     0.0175065  
C398     C      0.664370000000     0.493440000000     0.022820000000    -0.0682368  
C399     C      0.663550000000     0.434640000000     0.016710000000    -0.0200548  
C400     C      0.665780000000     0.495030000000     0.957590000000    -0.0628313  
C401     C      0.664280000000     0.466570000000     0.005430000000     0.0176804  
C402     C      0.664850000000     0.467310000000     0.973700000000     0.00863163 
C403     C      0.556070000000     0.325770000000     0.952650000000    -0.0220675  
C404     C      0.437330000000     0.329560000000     0.007310000000    -0.0141376  
C405     C      0.436830000000     0.325870000000     0.951810000000    -0.0219014  
C406     C      0.468890000000     0.326870000000     0.963540000000     0.0157257  
C407     C      0.468870000000     0.329000000000     0.995190000000     0.00507217 
C408     C      0.496020000000     0.330070000000     0.012040000000    -0.0561825  
C409     C      0.554780000000     0.329540000000     0.008140000000    -0.014025   
C410     C      0.496490000000     0.325670000000     0.946960000000    -0.0677136  
C411     C      0.523410000000     0.328920000000     0.995580000000     0.00499951 
C412     C      0.523850000000     0.326770000000     0.963930000000     0.0158172  
C413     C      0.887470000000     0.317690000000     0.027210000000    -0.022685   
C414     C      0.772480000000     0.346410000000     0.973380000000    -0.0197705  
C415     C      0.769710000000     0.315120000000     0.019270000000    -0.0206745  
C416     C      0.801820000000     0.323860000000     0.012630000000     0.018138   
C417     C      0.803210000000     0.343350000000     0.987660000000     0.00873682 
C418     C      0.830880000000     0.357110000000     0.978750000000    -0.0628391  
C419     C      0.889300000000     0.359590000000     0.990740000000    -0.021579   
C420     C      0.828400000000     0.313920000000     0.027510000000    -0.0687064  
C421     C      0.857280000000     0.348720000000     0.995070000000     0.00902865 
C422     C      0.856210000000     0.326280000000     0.017420000000     0.0184424  
C423     C      0.643580000000     0.102300000000     0.010940000000    -0.0194547  
C424     C      0.679230000000     0.218800000000     0.964080000000    -0.0212567  
C425     C      0.645440000000     0.220150000000     0.008260000000    -0.0155674  
C426     C      0.652270000000     0.188200000000     0.999480000000     0.0078307  
C427     C      0.673090000000     0.187360000000     0.975560000000     0.0143774  
C428     C      0.686330000000     0.159710000000     0.966050000000    -0.0656858  
C429     C      0.687080000000     0.101110000000     0.976270000000    -0.0203923  
C430     C      0.640650000000     0.161390000000     0.012590000000    -0.0622243  
C431     C      0.675960000000     0.132940000000     0.980450000000     0.0108678  
C432     C      0.652440000000     0.133680000000     0.001720000000     0.0153016  
H1       H      0.987820000000     0.114260000000     0.300350000000     0.045847   
H2       H      0.042380000000     0.112010000000     0.364750000000     0.0404132  
H3       H      0.042890000000     0.176490000000     0.383200000000     0.0452979  
H4       H      0.956700000000     0.176190000000     0.307410000000     0.0431628  
H5       H      0.976190000000     0.239370000000     0.303480000000     0.0399726  
H6       H      0.024400000000     0.241560000000     0.384100000000     0.0415816  
H7       H      0.956340000000     0.112370000000     0.327090000000     0.039285   
H8       H      0.010140000000     0.112820000000     0.390670000000     0.0456495  
H9       H      0.046450000000     0.238870000000     0.349200000000     0.0460057  
H10      H      0.954080000000     0.239470000000     0.338450000000     0.0458524  
H11      H      0.979600000000     0.299400000000     0.238740000000     0.0396276  
H12      H      0.048760000000     0.345760000000     0.236010000000     0.0454212  
H13      H      0.042930000000     0.379230000000     0.172730000000     0.0453916  
H14      H      0.957860000000     0.302370000000     0.175940000000     0.0432465  
H15      H      0.986440000000     0.295480000000     0.112670000000     0.0464537  
H16      H      0.007620000000     0.385900000000     0.110340000000     0.0458739  
H17      H      0.956580000000     0.333700000000     0.238440000000     0.0464852  
H18      H      0.026640000000     0.380590000000     0.238340000000     0.041087   
H19      H      0.040090000000     0.360430000000     0.107960000000     0.0408575  
H20      H      0.954610000000     0.321830000000     0.112320000000     0.0397423  
H21      H      0.954590000000     0.573910000000     0.353570000000     0.0439271  
H22      H      0.038730000000     0.574280000000     0.353260000000     0.043748   
H23      H      0.053970000000     0.510070000000     0.335790000000     0.0449047  
H24      H      0.939220000000     0.509940000000     0.334670000000     0.0432902  
H25      H      0.954260000000     0.447220000000     0.357690000000     0.0428624  
H26      H      0.039070000000     0.445690000000     0.318290000000     0.0438023  
H27      H      0.954710000000     0.572840000000     0.312220000000     0.042645   
H28      H      0.038220000000     0.572970000000     0.311910000000     0.0441039  
H29      H      0.038030000000     0.447740000000     0.359590000000     0.0445797  
H30      H      0.955220000000     0.445420000000     0.316370000000     0.0432106  
H31      H      0.016410000000     0.780250000000     0.374440000000     0.0417725  
H32      H      0.948290000000     0.782270000000     0.326040000000     0.0446036  
H33      H      0.954840000000     0.844300000000     0.291770000000     0.043615   
H34      H      0.038480000000     0.842740000000     0.370390000000     0.0451822  
H35      H      0.009660000000     0.905730000000     0.375650000000     0.0473967  
H36      H      0.989660000000     0.906760000000     0.284760000000     0.0442831  
H37      H      0.040130000000     0.779260000000     0.340550000000     0.0466898  
H38      H      0.971480000000     0.778810000000     0.291950000000     0.0402417  
H39      H      0.956770000000     0.908950000000     0.309760000000     0.0399155  
H40      H      0.041760000000     0.906160000000     0.349590000000     0.0404396  
H41      H      0.020660000000     0.718390000000     0.230160000000     0.0413352  
H42      H      0.952220000000     0.670160000000     0.228860000000     0.0457254  
H43      H      0.956950000000     0.636780000000     0.166890000000     0.0435014  
H44      H      0.040240000000     0.715610000000     0.165260000000     0.0455037  
H45      H      0.008200000000     0.719270000000     0.100800000000     0.0459604  
H46      H      0.989260000000     0.628460000000     0.105600000000     0.0458777  
H47      H      0.044120000000     0.684390000000     0.229160000000     0.0456844  
H48      H      0.975570000000     0.636100000000     0.230440000000     0.0405963  
H49      H      0.956730000000     0.653750000000     0.102340000000     0.0399317  
H50      H      0.041320000000     0.694520000000     0.101360000000     0.040531   
H51      H      0.947630000000     0.305250000000     0.567650000000     0.0426744  
H52      H      0.030860000000     0.309000000000     0.569610000000     0.0437969  
H53      H      0.047160000000     0.337940000000     0.509970000000     0.0448485  
H54      H      0.932610000000     0.332760000000     0.505720000000     0.0434614  
H55      H      0.951070000000     0.320490000000     0.440710000000     0.0436301  
H56      H      0.032650000000     0.365340000000     0.448660000000     0.0438543  
H57      H      0.945180000000     0.346200000000     0.572360000000     0.0430444  
H58      H      0.029400000000     0.350000000000     0.574320000000     0.0449529  
H59      H      0.035520000000     0.324330000000     0.444630000000     0.0443626  
H60      H      0.949800000000     0.361550000000     0.444830000000     0.042786   
H61      H      0.007900000000     0.365350000000     0.902160000000     0.047336   
H62      H      0.953490000000     0.300920000000     0.906630000000     0.0393314  
H63      H      0.952070000000     0.281280000000     0.842830000000     0.0432411  
H64      H      0.038360000000     0.356780000000     0.840000000000     0.0450901  
H65      H      0.017830000000     0.359530000000     0.777170000000     0.0415508  
H66      H      0.969150000000     0.279300000000     0.777220000000     0.0393642  
H67      H      0.039420000000     0.338750000000     0.904690000000     0.0399497  
H68      H      0.985880000000     0.275220000000     0.906360000000     0.044079   
H69      H      0.947100000000     0.314090000000     0.780370000000     0.0451252  
H70      H      0.039450000000     0.324310000000     0.776670000000     0.046206   
H71      H      0.974190000000     0.219470000000     0.715140000000     0.0392453  
H72      H      0.040560000000     0.220860000000     0.664210000000     0.0459712  
H73      H      0.036110000000     0.157970000000     0.630410000000     0.0452285  
H74      H      0.957640000000     0.154760000000     0.714140000000     0.0433285  
H75      H      0.992300000000     0.092640000000     0.717390000000     0.0451325  
H76      H      0.004300000000     0.094650000000     0.625190000000     0.0468745  
H77      H      0.949420000000     0.217290000000     0.682070000000     0.0457176  
H78      H      0.015980000000     0.221580000000     0.630940000000     0.0409077  
H79      H      0.038900000000     0.093270000000     0.647810000000     0.0400035  
H80      H      0.957600000000     0.091120000000     0.694920000000     0.0393196  
H81      H      0.033850000000     0.653260000000     0.435890000000     0.0449297  
H82      H      0.949580000000     0.654680000000     0.434160000000     0.0430489  
H83      H      0.933550000000     0.668870000000     0.499090000000     0.0432457  
H84      H      0.048280000000     0.668490000000     0.501080000000     0.0449369  
H85      H      0.031890000000     0.642410000000     0.562400000000     0.0436405  
H86      H      0.947570000000     0.682720000000     0.564660000000     0.0428954  
H87      H      0.034050000000     0.694430000000     0.439050000000     0.0433972  
H88      H      0.950720000000     0.695810000000     0.437600000000     0.0430143  
H89      H      0.948270000000     0.641650000000     0.560580000000     0.043724   
H90      H      0.031570000000     0.683530000000     0.566250000000     0.0443273  
H91      H      0.941840000000     0.423830000000     0.656230000000     0.0440262  
H92      H      0.026150000000     0.425530000000     0.652720000000     0.0433417  
H93      H      0.040920000000     0.490040000000     0.666720000000     0.0415065  
H94      H      0.926320000000     0.489140000000     0.672470000000     0.0449643  
H95      H      0.940580000000     0.551750000000     0.646010000000     0.0432189  
H96      H      0.026700000000     0.554110000000     0.682340000000     0.0431012  
H97      H      0.944030000000     0.426980000000     0.697420000000     0.0432408  
H98      H      0.027180000000     0.428770000000     0.693950000000     0.0423446  
H99      H      0.023510000000     0.551230000000     0.641190000000     0.0429265  
H100     H      0.942270000000     0.554540000000     0.687240000000     0.044147   
H101     H      0.958880000000     0.888580000000     0.643520000000     0.0397912  
H102     H      0.004750000000     0.885680000000     0.714050000000     0.046751   
H103     H      0.034170000000     0.821350000000     0.711320000000     0.045123   
H104     H      0.957600000000     0.824380000000     0.625870000000     0.043351   
H105     H      0.947020000000     0.762810000000     0.659240000000     0.0451987  
H106     H      0.037470000000     0.757440000000     0.680010000000     0.0460475  
H107     H      0.993870000000     0.885560000000     0.621670000000     0.0447621  
H108     H      0.039500000000     0.885390000000     0.691650000000     0.040434   
H109     H      0.011690000000     0.758320000000     0.712340000000     0.0410168  
H110     H      0.972550000000     0.759210000000     0.626890000000     0.0402074  
H111     H      0.030650000000     0.629460000000     0.895890000000     0.0387602  
H112     H      0.981610000000     0.698230000000     0.894360000000     0.046178   
H113     H      0.946200000000     0.691720000000     0.834660000000     0.0448393  
H114     H      0.025540000000     0.608980000000     0.832850000000     0.041957   
H115     H      0.029430000000     0.640370000000     0.770330000000     0.0450638  
H116     H      0.938320000000     0.658870000000     0.771330000000     0.0454285  
H117     H      0.996290000000     0.606640000000     0.898800000000     0.0410354  
H118     H      0.948320000000     0.674410000000     0.899930000000     0.0402564  
H119     H      0.962680000000     0.692250000000     0.770620000000     0.0407815  
H120     H      0.003860000000     0.607980000000     0.768460000000     0.0401865  
H121     H      0.899820000000     0.968550000000     0.365860000000     0.0396669  
H122     H      0.896390000000     0.026670000000     0.304140000000     0.0476032  
H123     H      0.832670000000     0.052900000000     0.310100000000     0.0443142  
H124     H      0.834830000000     0.963290000000     0.381640000000     0.0440741  
H125     H      0.773990000000     0.957630000000     0.345030000000     0.0449307  
H126     H      0.768200000000     0.050090000000     0.337890000000     0.0463721  
H127     H      0.896320000000     0.999430000000     0.393140000000     0.0442716  
H128     H      0.895600000000     0.056280000000     0.332940000000     0.0395659  
H129     H      0.771290000000     0.029450000000     0.302180000000     0.0408835  
H130     H      0.768440000000     0.977930000000     0.380630000000     0.0405542  
H131     H      0.722440000000     0.006880000000     0.102340000000     0.0454246  
H132     H      0.661460000000     0.950450000000     0.102630000000     0.0400827  
H133     H      0.642740000000     0.949720000000     0.167190000000     0.0442013  
H134     H      0.713740000000     0.039720000000     0.166360000000     0.0444019  
H135     H      0.715320000000     0.022230000000     0.232070000000     0.0401163  
H136     H      0.637880000000     0.969180000000     0.230020000000     0.0407979  
H137     H      0.695230000000     0.038010000000     0.102280000000     0.0400413  
H138     H      0.633350000000     0.980580000000     0.105440000000     0.0468218  
H139     H      0.674400000000     0.949830000000     0.231330000000     0.0455917  
H140     H      0.679520000000     0.042480000000     0.228060000000     0.0457721  
H141     H      0.436460000000     0.955570000000     0.341920000000     0.0431461  
H142     H      0.436070000000     0.039450000000     0.343170000000     0.0445823  
H143     H      0.499500000000     0.055800000000     0.323500000000     0.0443212  
H144     H      0.500940000000     0.941210000000     0.323250000000     0.0438629  
H145     H      0.563560000000     0.957630000000     0.346320000000     0.0439817  
H146     H      0.564110000000     0.040920000000     0.304160000000     0.0437434  
H147     H      0.437160000000     0.956400000000     0.300570000000     0.0435281  
H148     H      0.436530000000     0.039950000000     0.301820000000     0.0434473  
H149     H      0.562470000000     0.041700000000     0.345480000000     0.0438123  
H150     H      0.565400000000     0.957550000000     0.305010000000     0.0428033  
H151     H      0.228180000000     0.955920000000     0.328780000000     0.0457443  
H152     H      0.230090000000     0.023680000000     0.279940000000     0.0410095  
H153     H      0.165620000000     0.044420000000     0.282900000000     0.0449778  
H154     H      0.166150000000     0.962020000000     0.362700000000     0.0441373  
H155     H      0.101200000000     0.963230000000     0.346180000000     0.0402258  
H156     H      0.102260000000     0.047230000000     0.304360000000     0.0407941  
H157     H      0.230050000000     0.979400000000     0.362780000000     0.0409934  
H158     H      0.229380000000     0.047560000000     0.313680000000     0.0457517  
H159     H      0.100460000000     0.013820000000     0.280090000000     0.0458828  
H160     H      0.105710000000     0.995790000000     0.371200000000     0.046581   
H161     H      0.373200000000     0.008360000000     0.092270000000     0.0476372  
H162     H      0.307400000000     0.954960000000     0.091030000000     0.0403829  
H163     H      0.289770000000     0.955420000000     0.155560000000     0.0444487  
H164     H      0.367640000000     0.039590000000     0.153910000000     0.0445947  
H165     H      0.372270000000     0.019800000000     0.217010000000     0.0412826  
H166     H      0.290350000000     0.974120000000     0.220770000000     0.0408293  
H167     H      0.346830000000     0.040070000000     0.090010000000     0.0403418  
H168     H      0.282480000000     0.987950000000     0.091450000000     0.0450769  
H169     H      0.324480000000     0.951080000000     0.217300000000     0.0451958  
H170     H      0.338060000000     0.042990000000     0.217980000000     0.0462324  
H171     H      0.351060000000     0.043530000000     0.426200000000     0.0432401  
H172     H      0.353360000000     0.959970000000     0.426170000000     0.0441082  
H173     H      0.329920000000     0.943400000000     0.488430000000     0.0439519  
H174     H      0.328150000000     0.058000000000     0.489410000000     0.0442962  
H175     H      0.347390000000     0.042190000000     0.553290000000     0.0445494  
H176     H      0.306330000000     0.958380000000     0.551720000000     0.0433625  
H177     H      0.309760000000     0.042490000000     0.424530000000     0.0439078  
H178     H      0.312090000000     0.958640000000     0.424290000000     0.0434195  
H179     H      0.347660000000     0.957860000000     0.552530000000     0.0437277  
H180     H      0.306070000000     0.041510000000     0.552700000000     0.0430135  
H181     H      0.299580000000     0.970980000000     0.760580000000     0.0401387  
H182     H      0.342040000000     0.042780000000     0.763240000000     0.0450558  
H183     H      0.379900000000     0.036670000000     0.823430000000     0.0446299  
H184     H      0.308700000000     0.946800000000     0.821720000000     0.043836   
H185     H      0.304000000000     0.972200000000     0.885940000000     0.0473884  
H186     H      0.392800000000     0.999830000000     0.884160000000     0.0439809  
H187     H      0.335190000000     0.950330000000     0.756850000000     0.046341   
H188     H      0.377730000000     0.022850000000     0.757040000000     0.0408421  
H189     H      0.365570000000     0.030630000000     0.888660000000     0.0399274  
H190     H      0.332960000000     0.942810000000     0.884130000000     0.0393997  
H191     H      0.230360000000     0.955070000000     0.672800000000     0.0463947  
H192     H      0.227430000000     0.022790000000     0.622580000000     0.0403736  
H193     H      0.162560000000     0.037450000000     0.624880000000     0.0446313  
H194     H      0.168930000000     0.957590000000     0.707000000000     0.0440173  
H195     H      0.105030000000     0.952170000000     0.689610000000     0.039941   
H196     H      0.098280000000     0.034170000000     0.644380000000     0.0402043  
H197     H      0.232320000000     0.979680000000     0.705950000000     0.0395951  
H198     H      0.226560000000     0.046390000000     0.656550000000     0.0454416  
H199     H      0.102260000000     0.000350000000     0.620960000000     0.0462179  
H200     H      0.103880000000     0.986300000000     0.712890000000     0.0461016  
H201     H      0.682950000000     0.045830000000     0.436100000000     0.043788   
H202     H      0.679520000000     0.961380000000     0.436390000000     0.0444494  
H203     H      0.661050000000     0.946790000000     0.499760000000     0.0438909  
H204     H      0.666300000000     0.061270000000     0.501070000000     0.0444274  
H205     H      0.689690000000     0.043270000000     0.563980000000     0.0435198  
H206     H      0.644270000000     0.961680000000     0.563900000000     0.0445754  
H207     H      0.641640000000     0.046700000000     0.437360000000     0.0432529  
H208     H      0.638260000000     0.963840000000     0.437480000000     0.0434087  
H209     H      0.685540000000     0.960100000000     0.561930000000     0.0430843  
H210     H      0.648470000000     0.045710000000     0.566070000000     0.0435429  
H211     H      0.437170000000     0.037500000000     0.630130000000     0.0434912  
H212     H      0.436190000000     0.954690000000     0.631590000000     0.0430569  
H213     H      0.498500000000     0.938670000000     0.657870000000     0.0440126  
H214     H      0.499220000000     0.053280000000     0.655590000000     0.0443244  
H215     H      0.564090000000     0.037440000000     0.640950000000     0.0443623  
H216     H      0.560230000000     0.954600000000     0.683920000000     0.0434139  
H217     H      0.434890000000     0.039140000000     0.671410000000     0.0443284  
H218     H      0.433820000000     0.954540000000     0.672890000000     0.0439578  
H219     H      0.564070000000     0.953470000000     0.642740000000     0.0434438  
H220     H      0.560270000000     0.038060000000     0.682150000000     0.043397   
H221     H      0.894390000000     0.993960000000     0.717450000000     0.0443666  
H222     H      0.894280000000     0.951390000000     0.645460000000     0.0397952  
H223     H      0.831100000000     0.958300000000     0.625490000000     0.044145   
H224     H      0.833460000000     0.030790000000     0.714400000000     0.0443138  
H225     H      0.768170000000     0.015550000000     0.712320000000     0.0403564  
H226     H      0.768100000000     0.980600000000     0.625090000000     0.0407781  
H227     H      0.898480000000     0.029680000000     0.697080000000     0.0398168  
H228     H      0.895660000000     0.987080000000     0.624680000000     0.0462066  
H229     H      0.767970000000     0.953050000000     0.655910000000     0.0463523  
H230     H      0.771020000000     0.042420000000     0.681010000000     0.0452819  
H231     H      0.611820000000     0.995790000000     0.897970000000     0.0440472  
H232     H      0.677180000000     0.944950000000     0.898230000000     0.0398739  
H233     H      0.697280000000     0.946670000000     0.833690000000     0.0441598  
H234     H      0.618140000000     0.029630000000     0.834470000000     0.0442564  
H235     H      0.618770000000     0.012720000000     0.768800000000     0.0412336  
H236     H      0.701150000000     0.967740000000     0.770990000000     0.0405382  
H237     H      0.636060000000     0.029280000000     0.898410000000     0.0399472  
H238     H      0.702890000000     0.977190000000     0.895960000000     0.0465829  
H239     H      0.666880000000     0.944680000000     0.768960000000     0.0454506  
H240     H      0.652370000000     0.036320000000     0.773420000000     0.0458036  
H241     H      0.388820000000     0.886270000000     0.002170000000     0.0456997  
H242     H      0.326220000000     0.887280000000     0.947390000000     0.0396028  
H243     H      0.303550000000     0.824660000000     0.949970000000     0.0433163  
H244     H      0.378250000000     0.824120000000     0.037120000000     0.0451069  
H245     H      0.376610000000     0.758410000000     0.020730000000     0.0411091  
H246     H      0.296580000000     0.762480000000     0.971750000000     0.0399818  
H247     H      0.362570000000     0.889500000000     0.033990000000     0.0404524  
H248     H      0.298910000000     0.887840000000     0.978430000000     0.0464033  
H249     H      0.331520000000     0.760430000000     0.949730000000     0.0461132  
H250     H      0.341580000000     0.763020000000     0.042220000000     0.0452902  
H251     H      0.100190000000     0.643690000000     0.040310000000     0.0415693  
H252     H      0.101510000000     0.706320000000     0.984350000000     0.0457218  
H253     H      0.164970000000     0.699140000000     0.953760000000     0.0435459  
H254     H      0.164770000000     0.625570000000     0.041830000000     0.0453704  
H255     H      0.227790000000     0.659000000000     0.044570000000     0.0456399  
H256     H      0.227670000000     0.667410000000     0.951890000000     0.0457498  
H257     H      0.102500000000     0.616760000000     0.009020000000     0.0463915  
H258     H      0.101230000000     0.679050000000     0.953270000000     0.0405858  
H259     H      0.229060000000     0.702580000000     0.973540000000     0.0396074  
H260     H      0.229030000000     0.623290000000     0.023770000000     0.0413797  
H261     H      0.434700000000     0.671910000000     0.034260000000     0.0444401  
H262     H      0.434090000000     0.676830000000     0.949940000000     0.0432571  
H263     H      0.498650000000     0.659660000000     0.933640000000     0.043554   
H264     H      0.498060000000     0.652880000000     0.048280000000     0.0447908  
H265     H      0.560110000000     0.677210000000     0.034850000000     0.0438951  
H266     H      0.563560000000     0.640930000000     0.948730000000     0.0430867  
H267     H      0.435600000000     0.630720000000     0.031260000000     0.0440484  
H268     H      0.435050000000     0.635590000000     0.948090000000     0.0427726  
H269     H      0.561600000000     0.682110000000     0.951260000000     0.0429712  
H270     H      0.562080000000     0.636010000000     0.032610000000     0.0445452  
H271     H      0.646210000000     0.891720000000     0.045750000000     0.03983    
H272     H      0.714780000000     0.889950000000     0.998230000000     0.0448892  
H273     H      0.709190000000     0.827600000000     0.963970000000     0.0432767  
H274     H      0.626320000000     0.827460000000     0.043420000000     0.0450765  
H275     H      0.657640000000     0.763210000000     0.047500000000     0.0461626  
H276     H      0.674980000000     0.766440000000     0.956180000000     0.0458918  
H277     H      0.622800000000     0.890560000000     0.011660000000     0.0469046  
H278     H      0.692040000000     0.891600000000     0.963680000000     0.0396337  
H279     H      0.708060000000     0.762840000000     0.980740000000     0.039471   
H280     H      0.624200000000     0.763980000000     0.023140000000     0.0411816  
H281     H      0.894490000000     0.711360000000     0.997500000000     0.0447979  
H282     H      0.895930000000     0.643020000000     0.045270000000     0.0399299  
H283     H      0.831460000000     0.623740000000     0.043470000000     0.045184   
H284     H      0.831750000000     0.706220000000     0.963710000000     0.0432215  
H285     H      0.766960000000     0.705590000000     0.980950000000     0.0393061  
H286     H      0.767930000000     0.621980000000     0.023650000000     0.0412135  
H287     H      0.895630000000     0.688500000000     0.963030000000     0.0394022  
H288     H      0.894250000000     0.619530000000     0.011270000000     0.0468534  
H289     H      0.767430000000     0.655530000000     0.047800000000     0.0461688  
H290     H      0.770310000000     0.672510000000     0.956400000000     0.0458702  
H291     H      0.346050000000     0.428690000000     0.946320000000     0.0439652  
H292     H      0.346060000000     0.426320000000     0.030470000000     0.0438191  
H293     H      0.326180000000     0.489490000000     0.047360000000     0.0448125  
H294     H      0.325220000000     0.492310000000     0.932580000000     0.0433984  
H295     H      0.346390000000     0.555060000000     0.949050000000     0.0432564  
H296     H      0.306460000000     0.553920000000     0.033640000000     0.043471   
H297     H      0.304720000000     0.428280000000     0.946570000000     0.0427621  
H298     H      0.304720000000     0.426080000000     0.030140000000     0.0440432  
H299     H      0.347780000000     0.552880000000     0.033180000000     0.044437   
H300     H      0.305070000000     0.555940000000     0.950070000000     0.0431273  
H301     H      0.228340000000     0.278510000000     0.012870000000     0.0414594  
H302     H      0.222090000000     0.327430000000     0.945530000000     0.0452728  
H303     H      0.159830000000     0.360210000000     0.955000000000     0.0435043  
H304     H      0.164950000000     0.280320000000     0.037150000000     0.0454934  
H305     H      0.098290000000     0.276510000000     0.010070000000     0.0464206  
H306     H      0.101080000000     0.367580000000     0.992010000000     0.0459423  
H307     H      0.228260000000     0.312000000000     0.037080000000     0.0460486  
H308     H      0.224510000000     0.361370000000     0.968990000000     0.0407205  
H309     H      0.095350000000     0.342690000000     0.959500000000     0.0400022  
H310     H      0.101390000000     0.300820000000     0.043380000000     0.0411088  
H311     H      0.353710000000     0.094920000000     0.027160000000     0.0390168  
H312     H      0.286380000000     0.093660000000     0.977870000000     0.0452904  
H313     H      0.290800000000     0.156210000000     0.943370000000     0.0453131  
H314     H      0.373120000000     0.158580000000     0.023330000000     0.0420786  
H315     H      0.342000000000     0.221210000000     0.027150000000     0.0454653  
H316     H      0.323390000000     0.219210000000     0.935970000000     0.0453447  
H317     H      0.378020000000     0.095530000000     0.993700000000     0.0429318  
H318     H      0.310090000000     0.091710000000     0.944020000000     0.0408795  
H319     H      0.290280000000     0.221340000000     0.960660000000     0.0409745  
H320     H      0.374690000000     0.221580000000     0.001810000000     0.040425   
H321     H      0.646730000000     0.559280000000     0.949260000000     0.0430498  
H322     H      0.644230000000     0.556710000000     0.033270000000     0.0445058  
H323     H      0.663800000000     0.492850000000     0.047590000000     0.0448066  
H324     H      0.666280000000     0.495610000000     0.932810000000     0.0434324  
H325     H      0.643740000000     0.432060000000     0.946640000000     0.0435603  
H326     H      0.683930000000     0.429460000000     0.031020000000     0.044289   
H327     H      0.688050000000     0.558670000000     0.950700000000     0.0431232  
H328     H      0.685550000000     0.556260000000     0.034330000000     0.04364    
H329     H      0.642600000000     0.430180000000     0.030420000000     0.043753   
H330     H      0.685070000000     0.431200000000     0.947080000000     0.0428928  
H331     H      0.432340000000     0.304390000000     0.939000000000     0.0435602  
H332     H      0.433170000000     0.309960000000     0.022960000000     0.0431251  
H333     H      0.495850000000     0.331650000000     0.036780000000     0.0418476  
H334     H      0.496660000000     0.323910000000     0.922240000000     0.0447829  
H335     H      0.560790000000     0.304210000000     0.940080000000     0.0435151  
H336     H      0.559090000000     0.351080000000     0.020940000000     0.0434948  
H337     H      0.431990000000     0.345600000000     0.936540000000     0.0433511  
H338     H      0.432760000000     0.351130000000     0.019960000000     0.0432973  
H339     H      0.558790000000     0.309890000000     0.023770000000     0.0428432  
H340     H      0.561090000000     0.345390000000     0.937300000000     0.0434706  
H341     H      0.762230000000     0.324370000000     0.041760000000     0.0461337  
H342     H      0.765290000000     0.370730000000     0.971850000000     0.040752   
H343     H      0.831850000000     0.373210000000     0.959960000000     0.043674   
H344     H      0.827540000000     0.297200000000     0.045750000000     0.0449463  
H345     H      0.890450000000     0.320700000000     0.052300000000     0.0402095  
H346     H      0.896530000000     0.358130000000     0.966380000000     0.0401506  
H347     H      0.766770000000     0.289890000000     0.019450000000     0.0414075  
H348     H      0.772250000000     0.336360000000     0.950010000000     0.044808   
H349     H      0.891820000000     0.383600000000     0.998630000000     0.0440097  
H350     H      0.892490000000     0.293500000000     0.021270000000     0.0477418  
H351     H      0.653550000000     0.225020000000     0.031890000000     0.0455133  
H352     H      0.704090000000     0.224170000000     0.964290000000     0.0407242  
H353     H      0.703880000000     0.159070000000     0.948580000000     0.0442469  
H354     H      0.623510000000     0.162060000000     0.030470000000     0.0437129  
H355     H      0.644940000000     0.099230000000     0.036170000000     0.0412423  
H356     H      0.686010000000     0.094010000000     0.951860000000     0.0409782  
H357     H      0.620500000000     0.224970000000     0.007050000000     0.0408486  
H358     H      0.670400000000     0.221730000000     0.940400000000     0.0449306  
H359     H      0.711020000000     0.098670000000     0.984470000000     0.0449774  
H360     H      0.619930000000     0.096920000000     0.003300000000     0.0461319  
N1       N      0.000410000000     0.253980000000     0.343300000000    -0.168143   
N2       N      0.999560000000     0.098700000000     0.345190000000    -0.174682   
N3       N      0.996890000000     0.340410000000     0.096610000000    -0.171955   
N4       N      0.003080000000     0.339990000000     0.252100000000    -0.170361   
N5       N      0.996680000000     0.432320000000     0.338620000000    -0.172511   
N6       N      0.996540000000     0.587710000000     0.332590000000    -0.172241   
N7       N      0.999480000000     0.921080000000     0.330340000000    -0.172588   
N8       N      0.993650000000     0.765990000000     0.333670000000    -0.172463   
N9       N      0.999380000000     0.672990000000     0.088380000000    -0.174387   
N10      N      0.998100000000     0.677250000000     0.243840000000    -0.172321   
N11      N      0.992920000000     0.343700000000     0.430480000000    -0.172522   
N12      N      0.987990000000     0.326390000000     0.585190000000    -0.172582   
N13      N      0.992640000000     0.319940000000     0.763710000000    -0.172518   
N14      N      0.996270000000     0.321050000000     0.919110000000    -0.173029   
N15      N      0.998390000000     0.078800000000     0.670990000000    -0.172798   
N16      N      0.994410000000     0.233910000000     0.673050000000    -0.172389   
N17      N      0.989560000000     0.661360000000     0.577670000000    -0.171988   
N18      N      0.992320000000     0.675280000000     0.422440000000    -0.172052   
N19      N      0.983340000000     0.567160000000     0.663840000000    -0.172297   
N20      N      0.985140000000     0.412050000000     0.675690000000    -0.172628   
N21      N      0.991290000000     0.745290000000     0.669880000000    -0.171932   
N22      N      0.999650000000     0.900480000000     0.667750000000    -0.17186    
N23      N      0.983840000000     0.650720000000     0.756000000000    -0.17239    
N24      N      0.990900000000     0.653380000000     0.911300000000    -0.173126   
N25      N      0.756350000000     0.002850000000     0.340300000000    -0.171044   
N26      N      0.911300000000     0.012960000000     0.348760000000    -0.17087    
N27      N      0.675580000000     0.996680000000     0.244510000000    -0.171418   
N28      N      0.677210000000     0.994560000000     0.089010000000    -0.171186   
N29      N      0.578130000000     0.999680000000     0.326140000000    -0.171859   
N30      N      0.422280000000     0.997750000000     0.321810000000    -0.171016   
N31      N      0.088300000000     0.006050000000     0.326680000000    -0.17084    
N32      N      0.243610000000     0.001540000000     0.321390000000    -0.17101    
N33      N      0.332080000000     0.996800000000     0.232440000000    -0.171734   
N34      N      0.328120000000     0.996990000000     0.077000000000    -0.171508   
N35      N      0.327120000000     0.999810000000     0.566820000000    -0.17165    
N36      N      0.332070000000     0.001200000000     0.411050000000    -0.17103    
N37      N      0.348860000000     0.986010000000     0.900020000000    -0.171496   
N38      N      0.337460000000     0.997680000000     0.745300000000    -0.171721   
N39      N      0.088260000000     0.992030000000     0.666990000000    -0.171643   
N40      N      0.243290000000     0.001220000000     0.663530000000    -0.171163   
N41      N      0.667310000000     0.002290000000     0.578220000000    -0.171175   
N42      N      0.660850000000     0.004370000000     0.422560000000    -0.171131   
N43      N      0.576320000000     0.995920000000     0.663550000000    -0.171947   
N44      N      0.421280000000     0.996650000000     0.651460000000    -0.172083   
N45      N      0.754630000000     0.998250000000     0.668610000000    -0.171526   
N46      N      0.909860000000     0.989690000000     0.671350000000    -0.171777   
N47      N      0.660950000000     0.991370000000     0.756430000000    -0.171529   
N48      N      0.657780000000     0.987570000000     0.911840000000    -0.171687   
N49      N      0.335660000000     0.746920000000     0.996510000000    -0.172036   
N50      N      0.344190000000     0.901930000000     0.990340000000    -0.172315   
N51      N      0.242550000000     0.662710000000     0.998220000000    -0.172449   
N52      N      0.087190000000     0.661320000000     0.996570000000    -0.1723     
N53      N      0.576020000000     0.659600000000     0.992160000000    -0.172808   
N54      N      0.420660000000     0.653920000000     0.991020000000    -0.172674   
N55      N      0.665570000000     0.750020000000     0.001190000000    -0.168843   
N56      N      0.668890000000     0.905090000000     0.004590000000    -0.170236   
N57      N      0.754080000000     0.663250000000     0.001520000000    -0.169243   
N58      N      0.909180000000     0.665390000000     0.003910000000    -0.170623   
N59      N      0.327010000000     0.568660000000     0.991820000000    -0.17216    
N60      N      0.325750000000     0.413120000000     0.987990000000    -0.171892   
N61      N      0.084950000000     0.322830000000     0.002920000000    -0.169696   
N62      N      0.239980000000     0.320270000000     0.990340000000    -0.171802   
N63      N      0.332510000000     0.235010000000     0.981240000000    -0.172445   
N64      N      0.332460000000     0.079790000000     0.985870000000    -0.173287   
N65      N      0.663630000000     0.416530000000     0.988500000000    -0.17228    
N66      N      0.666150000000     0.571930000000     0.992310000000    -0.172493   
N67      N      0.574220000000     0.327530000000     0.980900000000    -0.171788   
N68      N      0.418280000000     0.327420000000     0.979800000000    -0.171792   
N69      N      0.907130000000     0.338860000000     0.010170000000    -0.169538   
N70      N      0.752540000000     0.329100000000     0.994110000000    -0.171612   
N71      N      0.666010000000     0.083070000000     0.995150000000    -0.17201    
N72      N      0.662360000000     0.238180000000     0.985620000000    -0.172167   
Ni1      Ni     0.665700000000     0.328000000000     0.959670000000     0.981643   
Ni2      Ni     0.661280000000     0.326710000000     0.013970000000     1.0101     
Ni3      Ni     0.330920000000     0.322800000000     0.011740000000     1.00456    
Ni4      Ni     0.327120000000     0.325150000000     0.957440000000     0.987408   
Ni5      Ni     0.663520000000     0.659450000000     0.023810000000     1.01062    
Ni6      Ni     0.666780000000     0.662670000000     0.969320000000     0.997248   
Ni7      Ni     0.330280000000     0.658860000000     0.967120000000     1.00105    
Ni8      Ni     0.332820000000     0.656800000000     0.021690000000     1.00287    
Ni9      Ni     0.664840000000     0.024310000000     0.669300000000     0.992928   
Ni10     Ni     0.666070000000     0.970050000000     0.665570000000     1.00564    
Ni11     Ni     0.331260000000     0.971740000000     0.656150000000     1.00729    
Ni12     Ni     0.333060000000     0.026280000000     0.656120000000     0.99794    
Ni13     Ni     0.333670000000     0.026470000000     0.320700000000     0.998497   
Ni14     Ni     0.332000000000     0.972120000000     0.322610000000     0.996968   
Ni15     Ni     0.667420000000     0.973750000000     0.334820000000     1.00163    
Ni16     Ni     0.667220000000     0.028230000000     0.332020000000     0.998545   
Ni17     Ni     0.959720000000     0.657770000000     0.665870000000     0.990705   
Ni18     Ni     0.014030000000     0.654780000000     0.667940000000     1.0012     
Ni19     Ni     0.016820000000     0.324510000000     0.673580000000     1.01631    
Ni20     Ni     0.962320000000     0.321230000000     0.675430000000     0.987098   
Ni21     Ni     0.022360000000     0.677620000000     0.334200000000     1.00063    
Ni22     Ni     0.967940000000     0.676220000000     0.331930000000     0.9968     
Ni23     Ni     0.971140000000     0.342250000000     0.339520000000     1.0032     
Ni24     Ni     0.025630000000     0.344000000000     0.343000000000     0.999695   
Ni25     Ni     0.993360000000     0.303920000000     0.011230000000     0.999277   
Ni26     Ni     0.998940000000     0.357770000000     0.004390000000     0.999186   
Ni27     Ni     0.997640000000     0.636250000000     0.003150000000     1.0061     
Ni28     Ni     0.998610000000     0.690230000000     0.996310000000     0.986226   
Ni29     Ni     0.003520000000     0.007150000000     0.364690000000     1.00859    
Ni30     Ni     0.996110000000     0.012610000000     0.310800000000     0.997911   
Ni31     Ni     0.998450000000     0.990220000000     0.641990000000     1.00014    
Ni32     Ni     0.999770000000     0.989210000000     0.696650000000     0.993627   
Ni33     Ni     0.640500000000     0.993780000000     0.003680000000     1.0054     
Ni34     Ni     0.694540000000     0.994290000000     0.996980000000     0.987489   
Ni35     Ni     0.311420000000     0.988530000000     0.985080000000     1.00076    
Ni36     Ni     0.365410000000     0.993240000000     0.992020000000     0.99942    
O1       O      0.621570000000     0.325650000000     0.958110000000    -0.441383   
O2       O      0.709180000000     0.331060000000     0.965060000000    -0.444428   
O3       O      0.668450000000     0.284020000000     0.961110000000    -0.443423   
O4       O      0.663210000000     0.371590000000     0.962070000000    -0.44666    
O5       O      0.663650000000     0.370490000000     0.013090000000    -0.448217   
O6       O      0.658500000000     0.283280000000     0.011130000000    -0.450312   
O7       O      0.705130000000     0.323990000000     0.015410000000    -0.447185   
O8       O      0.618030000000     0.329090000000     0.008900000000    -0.450341   
O9       O      0.374090000000     0.327170000000     0.007260000000    -0.449577   
O10      O      0.287200000000     0.317930000000     0.012590000000    -0.445944   
O11      O      0.335530000000     0.279570000000     0.007820000000    -0.449174   
O12      O      0.326680000000     0.366560000000     0.011840000000    -0.445596   
O13      O      0.327960000000     0.368700000000     0.960870000000    -0.447794   
O14      O      0.325860000000     0.281190000000     0.957760000000    -0.445624   
O15      O      0.283570000000     0.326270000000     0.962400000000    -0.446486   
O16      O      0.371310000000     0.324440000000     0.956380000000    -0.442265   
O17      O      0.620170000000     0.659000000000     0.019560000000    -0.452692   
O18      O      0.707420000000     0.659470000000     0.024430000000    -0.448661   
O19      O      0.662370000000     0.703360000000     0.024260000000    -0.447215   
O20      O      0.664320000000     0.616050000000     0.019760000000    -0.450837   
O21      O      0.667160000000     0.618690000000     0.968860000000    -0.44737    
O22      O      0.666930000000     0.706110000000     0.973480000000    -0.449766   
O23      O      0.710240000000     0.663740000000     0.973630000000    -0.450496   
O24      O      0.622770000000     0.662120000000     0.968680000000    -0.447679   
O25      O      0.374230000000     0.656730000000     0.966980000000    -0.448243   
O26      O      0.286810000000     0.661580000000     0.970870000000    -0.450689   
O27      O      0.331940000000     0.702290000000     0.970250000000    -0.451746   
O28      O      0.328210000000     0.614990000000     0.967630000000    -0.448451   
O29      O      0.330270000000     0.613260000000     0.018590000000    -0.447823   
O30      O      0.335860000000     0.700760000000     0.021120000000    -0.444396   
O31      O      0.288930000000     0.658620000000     0.021800000000    -0.44724    
O32      O      0.376190000000     0.654500000000     0.017940000000    -0.451212   
O33      O      0.668670000000     0.025320000000     0.625350000000    -0.4455     
O34      O      0.660190000000     0.019540000000     0.712610000000    -0.447735   
O35      O      0.708720000000     0.022790000000     0.673700000000    -0.444604   
O36      O      0.621410000000     0.021930000000     0.665170000000    -0.449088   
O37      O      0.622170000000     0.971010000000     0.666600000000    -0.449558   
O38      O      0.709600000000     0.972810000000     0.663930000000    -0.452029   
O39      O      0.667550000000     0.969240000000     0.709570000000    -0.448603   
O40      O      0.664950000000     0.974620000000     0.622190000000    -0.453      
O41      O      0.328520000000     0.973960000000     0.612280000000    -0.449595   
O42      O      0.333600000000     0.973180000000     0.699670000000    -0.453335   
O43      O      0.287840000000     0.974740000000     0.659870000000    -0.45294    
O44      O      0.375090000000     0.972280000000     0.653340000000    -0.45037    
O45      O      0.376550000000     0.023210000000     0.653280000000    -0.450645   
O46      O      0.289110000000     0.025670000000     0.658390000000    -0.447619   
O47      O      0.336530000000     0.024050000000     0.700070000000    -0.445702   
O48      O      0.330130000000     0.024880000000     0.612460000000    -0.449007   
O49      O      0.331280000000     0.025900000000     0.364770000000    -0.446204   
O50      O      0.336480000000     0.023130000000     0.277130000000    -0.44914    
O51      O      0.289790000000     0.025640000000     0.317700000000    -0.447884   
O52      O      0.377190000000     0.023720000000     0.323090000000    -0.44982    
O53      O      0.376100000000     0.972870000000     0.320390000000    -0.444808   
O54      O      0.288410000000     0.975300000000     0.325350000000    -0.449203   
O55      O      0.329070000000     0.972770000000     0.278710000000    -0.448171   
O56      O      0.334240000000     0.975070000000     0.366100000000    -0.451785   
O57      O      0.663490000000     0.977520000000     0.378100000000    -0.45348    
O58      O      0.670790000000     0.973550000000     0.291020000000    -0.449559   
O59      O      0.711250000000     0.976250000000     0.339280000000    -0.447041   
O60      O      0.623810000000     0.974890000000     0.330780000000    -0.449767   
O61      O      0.623420000000     0.025770000000     0.328560000000    -0.448377   
O62      O      0.710700000000     0.027030000000     0.335110000000    -0.451967   
O63      O      0.671620000000     0.024430000000     0.288510000000    -0.447701   
O64      O      0.663740000000     0.028420000000     0.376020000000    -0.446491   
O65      O      0.962820000000     0.657370000000     0.622250000000    -0.44825    
O66      O      0.960380000000     0.658550000000     0.709930000000    -0.445886   
O67      O      0.963910000000     0.701320000000     0.664850000000    -0.447187   
O68      O      0.959370000000     0.613710000000     0.666340000000    -0.444282   
O69      O      0.010230000000     0.611640000000     0.663230000000    -0.448912   
O70      O      0.014120000000     0.698460000000     0.673170000000    -0.44491    
O71      O      0.010520000000     0.649490000000     0.711270000000    -0.4472     
O72      O      0.013740000000     0.659520000000     0.624130000000    -0.444535   
O73      O      0.013870000000     0.325680000000     0.630190000000    -0.453659   
O74      O      0.016300000000     0.323720000000     0.717440000000    -0.450124   
O75      O      0.017420000000     0.280660000000     0.671660000000    -0.447998   
O76      O      0.012600000000     0.367900000000     0.674860000000    -0.451106   
O77      O      0.961700000000     0.365230000000     0.676490000000    -0.445468   
O78      O      0.966590000000     0.277750000000     0.674960000000    -0.448442   
O79      O      0.965490000000     0.319480000000     0.719160000000    -0.446593   
O80      O      0.962980000000     0.322580000000     0.631240000000    -0.444061   
O81      O      0.019090000000     0.674940000000     0.377720000000    -0.447903   
O82      O      0.021990000000     0.680870000000     0.290240000000    -0.444853   
O83      O      0.019440000000     0.721040000000     0.337300000000    -0.448607   
O84      O      0.021430000000     0.633720000000     0.331590000000    -0.444948   
O85      O      0.970480000000     0.632720000000     0.333820000000    -0.450065   
O86      O      0.969070000000     0.720110000000     0.329470000000    -0.447085   
O87      O      0.971530000000     0.673840000000     0.288420000000    -0.450061   
O88      O      0.968210000000     0.677950000000     0.375970000000    -0.446361   
O89      O      0.970140000000     0.343090000000     0.383430000000    -0.449561   
O90      O      0.975580000000     0.340720000000     0.296150000000    -0.455783   
O91      O      0.974120000000     0.298690000000     0.340020000000    -0.45006    
O92      O      0.971930000000     0.386220000000     0.338680000000    -0.447899   
O93      O      0.022830000000     0.387490000000     0.341650000000    -0.449196   
O94      O      0.024900000000     0.300070000000     0.344730000000    -0.444994   
O95      O      0.026440000000     0.343510000000     0.298850000000    -0.446223   
O96      O      0.021020000000     0.344950000000     0.386540000000    -0.447652   
O97      O      0.994180000000     0.310620000000     0.054240000000    -0.452397   
O98      O      0.991630000000     0.300870000000     0.967190000000    -0.448682   
O99      O      0.037560000000     0.301700000000     0.010520000000    -0.442494   
O100     O      0.950160000000     0.309820000000     0.012630000000    -0.450137   
O101     O      0.954780000000     0.359930000000     0.004700000000    -0.444675   
O102     O      0.042030000000     0.351910000000     0.003100000000    -0.449653   
O103     O      0.998420000000     0.351040000000     0.961370000000    -0.454726   
O104     O      0.000560000000     0.360850000000     0.048490000000    -0.441579   
O105     O      0.998410000000     0.633120000000     0.959040000000    -0.448509   
O106     O      0.996530000000     0.643140000000     0.046110000000    -0.456051   
O107     O      0.953930000000     0.638810000000     0.003240000000    -0.449735   
O108     O      0.041460000000     0.637530000000     0.004040000000    -0.44609    
O109     O      0.042080000000     0.686890000000     0.991520000000    -0.446342   
O110     O      0.955030000000     0.689700000000     0.000330000000    -0.446931   
O111     O      0.003630000000     0.693230000000     0.040190000000    -0.44182    
O112     O      0.993150000000     0.683480000000     0.953550000000    -0.450263   
O113     O      0.004880000000     0.051240000000     0.366610000000    -0.447454   
O114     O      0.002950000000     0.964070000000     0.359050000000    -0.451664   
O115     O      0.046420000000     0.005960000000     0.357320000000    -0.452727   
O116     O      0.959490000000     0.007270000000     0.368410000000    -0.447967   
O117     O      0.953230000000     0.013870000000     0.318190000000    -0.452583   
O118     O      0.040140000000     0.012260000000     0.307060000000    -0.444252   
O119     O      0.994620000000     0.968550000000     0.308890000000    -0.446701   
O120     O      0.996740000000     0.055700000000     0.316420000000    -0.455842   
O121     O      0.954740000000     0.989210000000     0.644890000000    -0.450153   
O122     O      0.042230000000     0.991390000000     0.642690000000    -0.44847    
O123     O      0.998190000000     0.946370000000     0.643080000000    -0.448004   
O124     O      0.998860000000     0.033950000000     0.644570000000    -0.449434   
O125     O      0.998600000000     0.032970000000     0.695620000000    -0.448864   
O126     O      0.000840000000     0.945470000000     0.694050000000    -0.444138   
O127     O      0.043570000000     0.989110000000     0.693670000000    -0.446745   
O128     O      0.955880000000     0.989550000000     0.695930000000    -0.447953   
O129     O      0.642650000000     0.950070000000     0.003880000000    -0.44848    
O130     O      0.642170000000     0.037610000000     0.004250000000    -0.446208   
O131     O      0.637480000000     0.994570000000     0.959600000000    -0.447995   
O132     O      0.647260000000     0.992590000000     0.046700000000    -0.452449   
O133     O      0.697450000000     0.999380000000     0.040890000000    -0.441907   
O134     O      0.687850000000     0.988790000000     0.954200000000    -0.449866   
O135     O      0.691630000000     0.037760000000     0.991930000000    -0.446374   
O136     O      0.693620000000     0.950740000000     0.001130000000    -0.445617   
O137     O      0.310210000000     0.032550000000     0.982620000000    -0.446767   
O138     O      0.316300000000     0.945410000000     0.986660000000    -0.453755   
O139     O      0.308020000000     0.989910000000     0.029150000000    -0.444522   
O140     O      0.318490000000     0.986200000000     0.942150000000    -0.45255    
O141     O      0.368840000000     0.991970000000     0.948010000000    -0.446512   
O142     O      0.358380000000     0.995660000000     0.034890000000    -0.45191    
O143     O      0.366560000000     0.949120000000     0.994520000000    -0.445668   
O144     O      0.360490000000     0.036410000000     0.990330000000    -0.452512   


