data_structure

_audit_creation_method RASPA-1.0
_audit_creation_date 2023-5-23
_audit_author_name 'Poobodin Mano'

_cell_length_a    41.0241
_cell_length_b    41.0251
_cell_length_c    40.9055
_cell_angle_alpha 90.0009
_cell_angle_beta  89.9978
_cell_angle_gamma 89.997
_cell_volume      68844.7

_symmetry_cell_setting          triclinic
_symmetry_space_group_name_Hall 'P 1'
_symmetry_space_group_name_H-M  'P 1'
_symmetry_Int_Tables_number     1

_symmetry_equiv_pos_as_xyz 'x,y,z'

loop_
_atom_site_label
_atom_site_type_symbol
_atom_site_fract_x
_atom_site_fract_y
_atom_site_fract_z
_atom_site_charge
C1       C      0.453580000000     0.314690000000     0.019060000000     0.432255   
C2       C      0.540910000000     0.314720000000     0.930510000000     0.432254   
C3       C      0.453580000000     0.314610000000     0.930510000000     0.432329   
C4       C      0.540910000000     0.314800000000     0.019060000000     0.432225   
C5       C      0.219030000000     0.549160000000     0.930310000000     0.43214    
C6       C      0.219150000000     0.636590000000     0.018760000000     0.432323   
C7       C      0.219040000000     0.549270000000     0.018860000000     0.432477   
C8       C      0.219140000000     0.636480000000     0.930210000000     0.432273   
C9       C      0.541730000000     0.871900000000     0.930010000000     0.432181   
C10      C      0.454420000000     0.871860000000     0.018570000000     0.432296   
C11      C      0.541740000000     0.871970000000     0.018560000000     0.432344   
C12      C      0.454410000000     0.871790000000     0.930020000000     0.432325   
C13      C      0.776180000000     0.550100000000     0.018870000000     0.432284   
C14      C      0.776290000000     0.637310000000     0.930210000000     0.432022   
C15      C      0.776170000000     0.549990000000     0.930320000000     0.432359   
C16      C      0.776290000000     0.637420000000     0.018770000000     0.432129   
C17      C      0.276210000000     0.049160000000     0.518770000000     0.432407   
C18      C      0.276100000000     0.136590000000     0.430320000000     0.432335   
C19      C      0.276210000000     0.049270000000     0.430210000000     0.43237    
C20      C      0.276110000000     0.136480000000     0.518870000000     0.432363   
C21      C      0.041740000000     0.814770000000     0.430010000000     0.432453   
C22      C      0.954420000000     0.814800000000     0.518570000000     0.432275   
C23      C      0.041740000000     0.814680000000     0.518570000000     0.43239    
C24      C      0.954420000000     0.814880000000     0.430020000000     0.432386   
C25      C      0.719110000000     0.137310000000     0.518870000000     0.432409   
C26      C      0.719220000000     0.050100000000     0.430210000000     0.432429   
C27      C      0.719110000000     0.137420000000     0.430310000000     0.432441   
C28      C      0.719230000000     0.049990000000     0.518750000000     0.432455   
C29      C      0.953580000000     0.371810000000     0.519060000000     0.432226   
C30      C      0.040900000000     0.371780000000     0.430500000000     0.432262   
C31      C      0.953580000000     0.371890000000     0.430500000000     0.432388   
C32      C      0.040900000000     0.371700000000     0.519050000000     0.432289   
C33      C      0.199990000000     0.357350000000     0.262590000000     0.432267   
C34      C      0.294620000000     0.329000000000     0.187100000000     0.432212   
C35      C      0.261460000000     0.295870000000     0.262610000000     0.431974   
C36      C      0.233160000000     0.390470000000     0.187070000000     0.432006   
C37      C      0.761610000000     0.391040000000     0.186790000000     0.43214    
C38      C      0.733300000000     0.296430000000     0.262310000000     0.432264   
C39      C      0.700150000000     0.329560000000     0.186800000000     0.432092   
C40      C      0.794760000000     0.357890000000     0.262310000000     0.431941   
C41      C      0.700030000000     0.329190000000     0.762630000000     0.432011   
C42      C      0.794660000000     0.357530000000     0.687130000000     0.432409   
C43      C      0.761500000000     0.390670000000     0.762650000000     0.43237    
C44      C      0.733200000000     0.296070000000     0.687110000000     0.431981   
C45      C      0.762080000000     0.796470000000     0.186720000000     0.432083   
C46      C      0.733740000000     0.891100000000     0.262220000000     0.432129   
C47      C      0.700610000000     0.857940000000     0.186700000000     0.43199    
C48      C      0.795210000000     0.829620000000     0.262240000000     0.432071   
C49      C      0.700710000000     0.857570000000     0.761980000000     0.432372   
C50      C      0.795340000000     0.829230000000     0.686490000000     0.4321     
C51      C      0.762170000000     0.796100000000     0.762010000000     0.432153   
C52      C      0.733870000000     0.890710000000     0.686470000000     0.432095   
C53      C      0.200670000000     0.829060000000     0.261940000000     0.432192   
C54      C      0.295290000000     0.857390000000     0.186440000000     0.432223   
C55      C      0.262120000000     0.890520000000     0.261960000000     0.43224    
C56      C      0.233820000000     0.795920000000     0.186430000000     0.432035   
C57      C      0.262020000000     0.890150000000     0.686760000000     0.432178   
C58      C      0.233700000000     0.795530000000     0.762280000000     0.432208   
C59      C      0.200560000000     0.828690000000     0.686760000000     0.432225   
C60      C      0.295170000000     0.857010000000     0.762280000000     0.432006   
C61      C      0.261580000000     0.295490000000     0.686850000000     0.43236    
C62      C      0.233240000000     0.390120000000     0.762340000000     0.431989   
C63      C      0.200110000000     0.356960000000     0.686830000000     0.432356   
C64      C      0.294710000000     0.328660000000     0.762370000000     0.432227   
C65      C      0.174140000000     0.389190000000     0.641680000000    -0.0208316  
C66      C      0.067690000000     0.343120000000     0.565180000000    -0.0203727  
C67      C      0.085200000000     0.398140000000     0.551810000000    -0.0204719  
C68      C      0.104400000000     0.384950000000     0.579700000000     0.0130366  
C69      C      0.093030000000     0.354320000000     0.588310000000     0.0139167  
C70      C      0.105330000000     0.337610000000     0.615440000000    -0.0661117  
C71      C      0.147930000000     0.339990000000     0.661790000000    -0.0203528  
C72      C      0.131220000000     0.399000000000     0.595730000000    -0.0650982  
C73      C      0.130830000000     0.352470000000     0.632540000000     0.0137436  
C74      C      0.144600000000     0.381480000000     0.622020000000     0.0130903  
C75      C      0.085190000000     0.398290000000     0.397770000000    -0.0205318  
C76      C      0.147810000000     0.340360000000     0.287600000000    -0.0203694  
C77      C      0.174010000000     0.389540000000     0.307770000000    -0.0207404  
C78      C      0.144490000000     0.381800000000     0.327450000000     0.0130752  
C79      C      0.130720000000     0.352810000000     0.316880000000     0.013757   
C80      C      0.105260000000     0.337880000000     0.334000000000    -0.0661544  
C81      C      0.067680000000     0.343290000000     0.384320000000    -0.0203362  
C82      C      0.131150000000     0.399260000000     0.353790000000    -0.0651258  
C83      C      0.092990000000     0.354530000000     0.361180000000     0.0139107  
C84      C      0.104350000000     0.385160000000     0.369840000000     0.0130601  
C85      C      0.926800000000     0.343480000000     0.384270000000    -0.0203346  
C86      C      0.820720000000     0.390010000000     0.307550000000    -0.0207728  
C87      C      0.846890000000     0.340820000000     0.287370000000    -0.0204215  
C88      C      0.863930000000     0.353200000000     0.316700000000     0.0137672  
C89      C      0.850180000000     0.382200000000     0.327270000000     0.0130647  
C90      C      0.863510000000     0.399610000000     0.353660000000    -0.0651161  
C91      C      0.909380000000     0.398510000000     0.397740000000    -0.0204769  
C92      C      0.889320000000     0.338210000000     0.333860000000    -0.066119   
C93      C      0.890240000000     0.385440000000     0.369750000000     0.0130419  
C94      C      0.901560000000     0.354800000000     0.361090000000     0.0138978  
C95      C      0.909360000000     0.398370000000     0.551850000000    -0.020457   
C96      C      0.846790000000     0.340490000000     0.662070000000    -0.0203629  
C97      C      0.820630000000     0.389720000000     0.641950000000    -0.0208092  
C98      C      0.850110000000     0.381940000000     0.622240000000     0.0131157  
C99      C      0.863850000000     0.352920000000     0.632770000000     0.0137197  
C100     C      0.889270000000     0.337960000000     0.615600000000    -0.0661259  
C101     C      0.926780000000     0.343320000000     0.565230000000    -0.0204323  
C102     C      0.863450000000     0.399390000000     0.595890000000    -0.0651501  
C103     C      0.901520000000     0.354600000000     0.588410000000     0.0139398  
C104     C      0.890200000000     0.385250000000     0.579800000000     0.0130315  
C105     C      0.701060000000     0.270120000000     0.641890000000    -0.0208008  
C106     C      0.747550000000     0.164060000000     0.565100000000    -0.0203406  
C107     C      0.692520000000     0.181480000000     0.551680000000    -0.0203767  
C108     C      0.705600000000     0.200610000000     0.579670000000     0.0130132  
C109     C      0.736250000000     0.189290000000     0.588300000000     0.0138928  
C110     C      0.752860000000     0.201530000000     0.615510000000    -0.0660491  
C111     C      0.750270000000     0.243950000000     0.662020000000    -0.0203319  
C112     C      0.691440000000     0.227340000000     0.595770000000    -0.0651072  
C113     C      0.737890000000     0.226930000000     0.632680000000     0.0137065  
C114     C      0.708870000000     0.240660000000     0.622140000000     0.0130933  
C115     C      0.747570000000     0.164250000000     0.384150000000    -0.0202629  
C116     C      0.701150000000     0.270450000000     0.307520000000    -0.020778   
C117     C      0.750350000000     0.244290000000     0.287360000000    -0.0203149  
C118     C      0.737940000000     0.227220000000     0.316660000000     0.0137283  
C119     C      0.708930000000     0.240960000000     0.327210000000     0.013064   
C120     C      0.691490000000     0.227600000000     0.353570000000    -0.0650999  
C121     C      0.692530000000     0.181670000000     0.397580000000    -0.0205341  
C122     C      0.752910000000     0.201800000000     0.333800000000    -0.0661063  
C123     C      0.705640000000     0.200850000000     0.369640000000     0.0130685  
C124     C      0.736280000000     0.189530000000     0.360990000000     0.0138696  
C125     C      0.747740000000     0.023360000000     0.384010000000    -0.0203209  
C126     C      0.701530000000     0.917070000000     0.307390000000    -0.0208226  
C127     C      0.750720000000     0.943280000000     0.287260000000    -0.0203586  
C128     C      0.738260000000     0.960350000000     0.316530000000     0.0137252  
C129     C      0.709260000000     0.946580000000     0.327070000000     0.0131126  
C130     C      0.691790000000     0.959910000000     0.353410000000    -0.06512    
C131     C      0.692730000000     0.005850000000     0.397420000000    -0.0205499  
C132     C      0.753180000000     0.985810000000     0.333670000000    -0.0661141  
C133     C      0.705880000000     0.986700000000     0.369480000000     0.0130548  
C134     C      0.736510000000     0.998070000000     0.360850000000     0.0138769  
C135     C      0.747780000000     0.023160000000     0.564870000000    -0.0203982  
C136     C      0.701660000000     0.916690000000     0.641310000000    -0.0207093  
C137     C      0.750850000000     0.942890000000     0.661450000000    -0.0203757  
C138     C      0.738370000000     0.960000000000     0.632210000000     0.0137686  
C139     C      0.709370000000     0.946240000000     0.621670000000     0.0130405  
C140     C      0.691870000000     0.959620000000     0.595370000000    -0.0650791  
C141     C      0.692760000000     0.005650000000     0.551460000000    -0.0205339  
C142     C      0.753260000000     0.985500000000     0.615120000000    -0.0661403  
C143     C      0.705940000000     0.986440000000     0.579340000000     0.013033   
C144     C      0.736570000000     0.997810000000     0.587980000000     0.013918   
C145     C      0.068540000000     0.843260000000     0.383840000000    -0.0203539  
C146     C      0.174690000000     0.796870000000     0.307120000000    -0.020782   
C147     C      0.148520000000     0.846090000000     0.287010000000    -0.0203663  
C148     C      0.131460000000     0.833670000000     0.316300000000     0.0137391  
C149     C      0.145210000000     0.804650000000     0.326830000000     0.0130962  
C150     C      0.131870000000     0.787190000000     0.353180000000    -0.0651185  
C151     C      0.085960000000     0.788210000000     0.397220000000    -0.0204493  
C152     C      0.106050000000     0.848620000000     0.333470000000    -0.0661061  
C153     C      0.105120000000     0.801330000000     0.369280000000     0.0130294  
C154     C      0.093790000000     0.831980000000     0.360660000000     0.0139206  
C155     C      0.068520000000     0.843100000000     0.564800000000    -0.0203712  
C156     C      0.174600000000     0.796560000000     0.641520000000    -0.020827   
C157     C      0.148430000000     0.845760000000     0.661690000000    -0.0203826  
C158     C      0.131390000000     0.833380000000     0.632370000000     0.01374    
C159     C      0.145140000000     0.804380000000     0.621800000000     0.0131101  
C160     C      0.131820000000     0.786970000000     0.595410000000    -0.0651226  
C161     C      0.085940000000     0.788070000000     0.551330000000    -0.020482   
C162     C      0.106000000000     0.848370000000     0.615200000000    -0.0661197  
C163     C      0.105080000000     0.801140000000     0.579310000000     0.0130216  
C164     C      0.093760000000     0.831780000000     0.587980000000     0.0139327  
C165     C      0.910130000000     0.788290000000     0.551300000000    -0.0204928  
C166     C      0.847520000000     0.846220000000     0.661470000000    -0.0204403  
C167     C      0.821310000000     0.797040000000     0.641300000000    -0.0207954  
C168     C      0.850830000000     0.804790000000     0.621630000000     0.0130933  
C169     C      0.864600000000     0.833770000000     0.632190000000     0.0137627  
C170     C      0.890060000000     0.848700000000     0.615070000000    -0.0661482  
C171     C      0.927640000000     0.843290000000     0.564750000000    -0.0203127  
C172     C      0.864170000000     0.787320000000     0.595290000000    -0.0651261  
C173     C      0.902330000000     0.832050000000     0.587890000000     0.0138992  
C174     C      0.890970000000     0.801420000000     0.579240000000     0.013038   
C175     C      0.910110000000     0.788440000000     0.397260000000    -0.0205181  
C176     C      0.847400000000     0.846590000000     0.287270000000    -0.0203597  
C177     C      0.821190000000     0.797390000000     0.307380000000    -0.0208384  
C178     C      0.850730000000     0.805090000000     0.327040000000     0.0131068  
C179     C      0.864500000000     0.834090000000     0.316510000000     0.0137345  
C180     C      0.889990000000     0.848970000000     0.333630000000    -0.0661332  
C181     C      0.927630000000     0.843460000000     0.383890000000    -0.0203576  
C182     C      0.864100000000     0.787570000000     0.353330000000    -0.0651403  
C183     C      0.902290000000     0.832270000000     0.360760000000     0.0139073  
C184     C      0.890920000000     0.801630000000     0.369370000000     0.0130546  
C185     C      0.247550000000     0.163420000000     0.384210000000    -0.02033    
C186     C      0.293660000000     0.269890000000     0.307780000000    -0.0207954  
C187     C      0.244470000000     0.243690000000     0.287630000000    -0.0204049  
C188     C      0.256950000000     0.226580000000     0.316870000000     0.0137519  
C189     C      0.285950000000     0.240340000000     0.327420000000     0.0130939  
C190     C      0.303450000000     0.226960000000     0.353710000000    -0.0651026  
C191     C      0.302560000000     0.180930000000     0.397620000000    -0.020504   
C192     C      0.242070000000     0.201080000000     0.333970000000    -0.066122   
C193     C      0.289380000000     0.200140000000     0.369740000000     0.0130359  
C194     C      0.258760000000     0.188780000000     0.361100000000     0.0139146  
C195     C      0.247580000000     0.163220000000     0.565070000000    -0.0204205  
C196     C      0.293790000000     0.269520000000     0.641680000000    -0.0207743  
C197     C      0.244600000000     0.243310000000     0.661820000000    -0.0203923  
C198     C      0.257060000000     0.226230000000     0.632540000000     0.0137554  
C199     C      0.286060000000     0.240010000000     0.622000000000     0.013088   
C200     C      0.303540000000     0.226670000000     0.595670000000    -0.0651212  
C201     C      0.302590000000     0.180740000000     0.551660000000    -0.0204486  
C202     C      0.242150000000     0.200780000000     0.615400000000    -0.0661489  
C203     C      0.289450000000     0.199890000000     0.579600000000     0.0130219  
C204     C      0.258820000000     0.188520000000     0.588230000000     0.013947   
C205     C      0.294170000000     0.916120000000     0.641550000000    -0.0208035  
C206     C      0.247750000000     0.022330000000     0.564930000000    -0.0202656  
C207     C      0.302790000000     0.004910000000     0.551500000000    -0.0205532  
C208     C      0.289690000000     0.985740000000     0.579450000000     0.0130951  
C209     C      0.259040000000     0.997050000000     0.588090000000     0.0138496  
C210     C      0.242400000000     0.984770000000     0.615270000000    -0.0660761  
C211     C      0.244960000000     0.942280000000     0.661710000000    -0.0203281  
C212     C      0.303830000000     0.958970000000     0.595510000000    -0.0652172  
C213     C      0.257360000000     0.959340000000     0.632400000000     0.013706   
C214     C      0.286380000000     0.945610000000     0.621850000000     0.0131343  
C215     C      0.294260000000     0.916470000000     0.307190000000    -0.0207532  
C216     C      0.247770000000     0.022520000000     0.383980000000    -0.0203173  
C217     C      0.302810000000     0.005100000000     0.397400000000    -0.0204715  
C218     C      0.289720000000     0.985980000000     0.369410000000     0.0130121  
C219     C      0.259080000000     0.997300000000     0.360780000000     0.0139081  
C220     C      0.242460000000     0.985060000000     0.333560000000    -0.0661466  
C221     C      0.245050000000     0.942640000000     0.287050000000    -0.0204562  
C222     C      0.303880000000     0.959240000000     0.353300000000    -0.0650941  
C223     C      0.257430000000     0.959660000000     0.316390000000     0.0137781  
C224     C      0.286450000000     0.945920000000     0.326930000000     0.0130718  
C225     C      0.793820000000     0.417000000000     0.141620000000    -0.0208433  
C226     C      0.747650000000     0.523360000000     0.065060000000    -0.0203326  
C227     C      0.802660000000     0.505840000000     0.051650000000    -0.0205245  
C228     C      0.789500000000     0.486680000000     0.079580000000     0.0130869  
C229     C      0.758870000000     0.498050000000     0.088200000000     0.0138758  
C230     C      0.742190000000     0.485770000000     0.115360000000    -0.0660761  
C231     C      0.744630000000     0.443210000000     0.161760000000    -0.020313   
C232     C      0.803580000000     0.459870000000     0.095620000000    -0.0651774  
C233     C      0.757080000000     0.460290000000     0.132480000000     0.0136913  
C234     C      0.786090000000     0.446520000000     0.121940000000     0.013142   
C235     C      0.802860000000     0.681680000000     0.051490000000    -0.0204545  
C236     C      0.745030000000     0.744330000000     0.161690000000    -0.0203558  
C237     C      0.794240000000     0.770480000000     0.141530000000    -0.0207819  
C238     C      0.786450000000     0.740990000000     0.121840000000     0.0130638  
C239     C      0.757440000000     0.727250000000     0.132400000000     0.0137627  
C240     C      0.742480000000     0.701830000000     0.115260000000    -0.0661546  
C241     C      0.747820000000     0.664270000000     0.064930000000    -0.0204332  
C242     C      0.803900000000     0.727620000000     0.095490000000    -0.0650864  
C243     C      0.759110000000     0.689550000000     0.088080000000     0.0139628  
C244     C      0.789750000000     0.700860000000     0.079430000000     0.0130177  
C245     C      0.745100000000     0.743990000000     0.787090000000    -0.0203737  
C246     C      0.802880000000     0.681490000000     0.897400000000    -0.0205509  
C247     C      0.747840000000     0.664070000000     0.883980000000    -0.0203344  
C248     C      0.759140000000     0.689310000000     0.860790000000     0.0138984  
C249     C      0.789790000000     0.700620000000     0.869420000000     0.0130629  
C250     C      0.803940000000     0.727360000000     0.853330000000    -0.0651303  
C251     C      0.794310000000     0.770150000000     0.807230000000    -0.0207423  
C252     C      0.742520000000     0.701550000000     0.833580000000    -0.0661387  
C253     C      0.786500000000     0.740690000000     0.826960000000     0.0130684  
C254     C      0.757490000000     0.726950000000     0.816420000000     0.0137508  
C255     C      0.802630000000     0.505650000000     0.897630000000    -0.0204544  
C256     C      0.744520000000     0.442860000000     0.787660000000    -0.0204746  
C257     C      0.793710000000     0.416660000000     0.807810000000    -0.0206954  
C258     C      0.786000000000     0.446210000000     0.827440000000     0.0130088  
C259     C      0.757010000000     0.459980000000     0.816890000000     0.0138421  
C260     C      0.742120000000     0.485480000000     0.833980000000    -0.0662482  
C261     C      0.747610000000     0.523160000000     0.884210000000    -0.0204531  
C262     C      0.803510000000     0.459600000000     0.853730000000    -0.0650498  
C263     C      0.758820000000     0.497790000000     0.861110000000     0.0139964  
C264     C      0.789450000000     0.486430000000     0.869750000000     0.0129743  
C265     C      0.568530000000     0.843560000000     0.064780000000    -0.0203466  
C266     C      0.674650000000     0.890060000000     0.141470000000    -0.0207716  
C267     C      0.648480000000     0.840870000000     0.161640000000    -0.0204006  
C268     C      0.631430000000     0.853250000000     0.132320000000     0.0137848  
C269     C      0.645170000000     0.882260000000     0.121760000000     0.0130533  
C270     C      0.631840000000     0.899670000000     0.095370000000    -0.0650932  
C271     C      0.585950000000     0.898580000000     0.051320000000    -0.0204426  
C272     C      0.606030000000     0.838270000000     0.115170000000    -0.0661713  
C273     C      0.605100000000     0.885510000000     0.079290000000     0.0130232  
C274     C      0.593780000000     0.854870000000     0.087950000000     0.0139288  
C275     C      0.321260000000     0.889580000000     0.141250000000    -0.0208131  
C276     C      0.427640000000     0.843360000000     0.064750000000    -0.0204334  
C277     C      0.410130000000     0.898370000000     0.051300000000    -0.0204936  
C278     C      0.390950000000     0.885230000000     0.079230000000     0.0130329  
C279     C      0.402320000000     0.854600000000     0.087880000000     0.0139623  
C280     C      0.390040000000     0.837940000000     0.115040000000    -0.0661595  
C281     C      0.347470000000     0.840400000000     0.161420000000    -0.0203526  
C282     C      0.364140000000     0.899320000000     0.095260000000    -0.0651245  
C283     C      0.364550000000     0.852850000000     0.132150000000     0.0137409  
C284     C      0.350780000000     0.881840000000     0.121590000000     0.0131025  
C285     C      0.427620000000     0.843200000000     0.883900000000    -0.0203447  
C286     C      0.321150000000     0.889250000000     0.807420000000    -0.0208264  
C287     C      0.347360000000     0.840050000000     0.787300000000    -0.0204012  
C288     C      0.364470000000     0.852550000000     0.816530000000     0.0137532  
C289     C      0.350700000000     0.881560000000     0.827060000000     0.0130967  
C290     C      0.364070000000     0.899080000000     0.853350000000    -0.0651191  
C291     C      0.410090000000     0.898220000000     0.897270000000    -0.0205147  
C292     C      0.389970000000     0.837680000000     0.833640000000    -0.0661304  
C293     C      0.390900000000     0.885020000000     0.869390000000     0.0130464  
C294     C      0.402270000000     0.854390000000     0.860780000000     0.0138868  
C295     C      0.674730000000     0.889760000000     0.807160000000    -0.0207557  
C296     C      0.568530000000     0.843400000000     0.883840000000    -0.0204172  
C297     C      0.585950000000     0.898450000000     0.897220000000    -0.0204848  
C298     C      0.605120000000     0.885330000000     0.869280000000     0.0130116  
C299     C      0.593800000000     0.854680000000     0.860660000000     0.0139316  
C300     C      0.606080000000     0.838020000000     0.833490000000    -0.066127   
C301     C      0.648570000000     0.840540000000     0.787040000000    -0.0203556  
C302     C      0.631890000000     0.899450000000     0.853200000000    -0.065112   
C303     C      0.631510000000     0.852960000000     0.816340000000     0.0137392  
C304     C      0.645250000000     0.881980000000     0.826870000000     0.0130819  
C305     C      0.247710000000     0.663420000000     0.064870000000    -0.0204333  
C306     C      0.201610000000     0.769930000000     0.141270000000    -0.0207913  
C307     C      0.250800000000     0.743730000000     0.161420000000    -0.0203345  
C308     C      0.238310000000     0.726610000000     0.132190000000     0.0137369  
C309     C      0.209320000000     0.740380000000     0.121640000000     0.0130945  
C310     C      0.191810000000     0.726990000000     0.095350000000    -0.0650978  
C311     C      0.192690000000     0.680940000000     0.051450000000    -0.0205292  
C312     C      0.253200000000     0.701100000000     0.115100000000    -0.0661342  
C313     C      0.205870000000     0.700160000000     0.079330000000     0.0130419  
C314     C      0.236500000000     0.688790000000     0.087970000000     0.0139464  
C315     C      0.250230000000     0.442590000000     0.161980000000    -0.0204141  
C316     C      0.192450000000     0.505090000000     0.051670000000    -0.020436   
C317     C      0.247490000000     0.522510000000     0.065090000000    -0.0204436  
C318     C      0.236180000000     0.497270000000     0.088280000000     0.0139627  
C319     C      0.205540000000     0.485950000000     0.079650000000     0.0129994  
C320     C      0.191390000000     0.459220000000     0.095750000000    -0.0650662  
C321     C      0.201020000000     0.416430000000     0.141840000000    -0.0207538  
C322     C      0.252810000000     0.485030000000     0.115490000000    -0.0661608  
C323     C      0.208820000000     0.445880000000     0.122110000000     0.0130665  
C324     C      0.237840000000     0.459620000000     0.132650000000     0.0137753  
C325     C      0.192460000000     0.504910000000     0.897580000000    -0.0204391  
C326     C      0.250290000000     0.442260000000     0.787380000000    -0.0203621  
C327     C      0.201080000000     0.416110000000     0.807540000000    -0.0207763  
C328     C      0.208860000000     0.445600000000     0.827230000000     0.0130796  
C329     C      0.237870000000     0.459340000000     0.816670000000     0.0137475  
C330     C      0.252840000000     0.484760000000     0.833810000000    -0.0661331  
C331     C      0.247500000000     0.522320000000     0.884150000000    -0.0203912  
C332     C      0.191420000000     0.458960000000     0.853580000000    -0.0651165  
C333     C      0.236210000000     0.497040000000     0.861000000000     0.0139272  
C334     C      0.205560000000     0.485730000000     0.869640000000     0.0130111  
C335     C      0.247670000000     0.663230000000     0.884020000000    -0.0203806  
C336     C      0.201490000000     0.769570000000     0.807450000000    -0.0207857  
C337     C      0.250680000000     0.743350000000     0.787310000000    -0.0203619  
C338     C      0.238210000000     0.726270000000     0.816580000000     0.0137368  
C339     C      0.209220000000     0.740050000000     0.827120000000     0.0130883  
C340     C      0.191730000000     0.726700000000     0.853450000000    -0.065148   
C341     C      0.192660000000     0.680750000000     0.897440000000    -0.0205127  
C342     C      0.253120000000     0.700800000000     0.833710000000    -0.0661337  
C343     C      0.205820000000     0.699910000000     0.869510000000     0.0130516  
C344     C      0.236440000000     0.688540000000     0.860870000000     0.0139211  
C345     C      0.409360000000     0.288140000000     0.051850000000    -0.0204967  
C346     C      0.346760000000     0.346030000000     0.162040000000    -0.0203162  
C347     C      0.320600000000     0.296810000000     0.141920000000    -0.0208296  
C348     C      0.350090000000     0.304590000000     0.122220000000     0.0131278  
C349     C      0.363830000000     0.333600000000     0.132750000000     0.0136951  
C350     C      0.389250000000     0.348550000000     0.115590000000    -0.0660602  
C351     C      0.426780000000     0.343180000000     0.065240000000    -0.0203219  
C352     C      0.363440000000     0.287130000000     0.095870000000    -0.0651574  
C353     C      0.401520000000     0.331910000000     0.088410000000     0.0138866  
C354     C      0.390200000000     0.301260000000     0.079790000000     0.0130756  
C355     C      0.567700000000     0.343380000000     0.065180000000    -0.0203366  
C356     C      0.674170000000     0.297330000000     0.141660000000    -0.0207531  
C357     C      0.647950000000     0.346520000000     0.161780000000    -0.0203947  
C358     C      0.630840000000     0.334020000000     0.132550000000     0.0137687  
C359     C      0.644620000000     0.305020000000     0.122020000000     0.0130607  
C360     C      0.631240000000     0.287500000000     0.095730000000    -0.0650804  
C361     C      0.585220000000     0.288360000000     0.051800000000    -0.0205144  
C362     C      0.605340000000     0.348900000000     0.115440000000    -0.0661573  
C363     C      0.604420000000     0.301560000000     0.079690000000     0.0130408  
C364     C      0.593050000000     0.332190000000     0.088300000000     0.013914   
C365     C      0.585200000000     0.288220000000     0.897780000000    -0.02054    
C366     C      0.647850000000     0.346180000000     0.787650000000    -0.0204207  
C367     C      0.674060000000     0.297000000000     0.807810000000    -0.0208005  
C368     C      0.644530000000     0.304740000000     0.827480000000     0.0131009  
C369     C      0.630760000000     0.333730000000     0.816910000000     0.0137409  
C370     C      0.605280000000     0.348640000000     0.834030000000    -0.0661188  
C371     C      0.567690000000     0.343230000000     0.884330000000    -0.02036    
C372     C      0.631180000000     0.287270000000     0.853810000000    -0.0651423  
C373     C      0.593010000000     0.331990000000     0.861200000000     0.0139152  
C374     C      0.604370000000     0.301360000000     0.869850000000     0.0130518  
C375     C      0.426790000000     0.343040000000     0.884290000000    -0.0204424  
C376     C      0.320670000000     0.296530000000     0.807610000000    -0.020789   
C377     C      0.346840000000     0.345720000000     0.787430000000    -0.0203671  
C378     C      0.363890000000     0.333340000000     0.816750000000     0.0137542  
C379     C      0.350140000000     0.304340000000     0.827320000000     0.013067   
C380     C      0.363480000000     0.286920000000     0.853700000000    -0.0650974  
C381     C      0.409370000000     0.288010000000     0.897760000000    -0.0204364  
C382     C      0.389290000000     0.348320000000     0.833900000000    -0.0661287  
C383     C      0.390220000000     0.301090000000     0.869780000000     0.0130029  
C384     C      0.401540000000     0.331720000000     0.861120000000     0.0139415  
H1       H      0.101160000000     0.404630000000     0.530850000000     0.0412355  
H2       H      0.076070000000     0.321350000000     0.551360000000     0.0455296  
H3       H      0.095770000000     0.314090000000     0.622670000000     0.0438098  
H4       H      0.141300000000     0.422140000000     0.588010000000     0.0443096  
H5       H      0.196370000000     0.389370000000     0.626160000000     0.0458128  
H6       H      0.131690000000     0.340620000000     0.683520000000     0.0446276  
H7       H      0.071170000000     0.420090000000     0.559240000000     0.0452671  
H8       H      0.044640000000     0.336950000000     0.578070000000     0.041167   
H9       H      0.156590000000     0.314560000000     0.658090000000     0.0419248  
H10      H      0.171820000000     0.413240000000     0.653930000000     0.0414282  
H11      H      0.196260000000     0.389710000000     0.323280000000     0.0457859  
H12      H      0.156470000000     0.314930000000     0.291260000000     0.0419575  
H13      H      0.095700000000     0.314380000000     0.326740000000     0.0438413  
H14      H      0.141230000000     0.422380000000     0.361550000000     0.044329   
H15      H      0.101160000000     0.404750000000     0.418730000000     0.0412521  
H16      H      0.044630000000     0.337120000000     0.371450000000     0.0411645  
H17      H      0.171680000000     0.413610000000     0.295550000000     0.041407   
H18      H      0.131550000000     0.341030000000     0.265880000000     0.0446321  
H19      H      0.076090000000     0.321500000000     0.398100000000     0.045517   
H20      H      0.071140000000     0.420250000000     0.390400000000     0.0452805  
H21      H      0.838190000000     0.315400000000     0.290980000000     0.0419668  
H22      H      0.798440000000     0.390210000000     0.323010000000     0.0458047  
H23      H      0.853450000000     0.422740000000     0.361420000000     0.0443221  
H24      H      0.898850000000     0.314690000000     0.326590000000     0.0438039  
H25      H      0.918310000000     0.321700000000     0.398020000000     0.0455057  
H26      H      0.923480000000     0.420450000000     0.390410000000     0.0452646  
H27      H      0.863190000000     0.341490000000     0.265690000000     0.0446317  
H28      H      0.823120000000     0.414090000000     0.295360000000     0.041397   
H29      H      0.893370000000     0.404980000000     0.418670000000     0.0412249  
H30      H      0.949870000000     0.337270000000     0.371440000000     0.0411487  
H31      H      0.798360000000     0.389920000000     0.626470000000     0.045807   
H32      H      0.838100000000     0.315080000000     0.658420000000     0.0419345  
H33      H      0.898790000000     0.314430000000     0.622840000000     0.0438102  
H34      H      0.853400000000     0.422530000000     0.588160000000     0.044338   
H35      H      0.893370000000     0.404870000000     0.530910000000     0.0412335  
H36      H      0.949840000000     0.337100000000     0.578060000000     0.0411791  
H37      H      0.823010000000     0.413780000000     0.654170000000     0.0414114  
H38      H      0.863080000000     0.341130000000     0.683770000000     0.044613   
H39      H      0.918300000000     0.321570000000     0.551440000000     0.0455405  
H40      H      0.923460000000     0.420300000000     0.559220000000     0.0452687  
H41      H      0.686030000000     0.197500000000     0.530760000000     0.0412036  
H42      H      0.769320000000     0.172550000000     0.551340000000     0.0455094  
H43      H      0.776390000000     0.191990000000     0.622770000000     0.0437681  
H44      H      0.668300000000     0.237400000000     0.588030000000     0.0443141  
H45      H      0.700850000000     0.292400000000     0.626430000000     0.0458015  
H46      H      0.749610000000     0.227640000000     0.683700000000     0.0446074  
H47      H      0.670580000000     0.167370000000     0.559020000000     0.0452421  
H48      H      0.753770000000     0.140990000000     0.577910000000     0.0411568  
H49      H      0.775690000000     0.252660000000     0.658410000000     0.0419359  
H50      H      0.676990000000     0.267710000000     0.654090000000     0.0414043  
H51      H      0.749710000000     0.228010000000     0.265660000000     0.0446112  
H52      H      0.677080000000     0.268070000000     0.295310000000     0.0414018  
H53      H      0.668350000000     0.237660000000     0.361320000000     0.0443101  
H54      H      0.776430000000     0.192270000000     0.326540000000     0.0438088  
H55      H      0.753790000000     0.141200000000     0.371290000000     0.0411418  
H56      H      0.686050000000     0.197650000000     0.418530000000     0.0412427  
H57      H      0.775780000000     0.252980000000     0.291010000000     0.0419183  
H58      H      0.700950000000     0.292710000000     0.323000000000     0.0457998  
H59      H      0.670600000000     0.167580000000     0.390210000000     0.0452905  
H60      H      0.769340000000     0.172720000000     0.397930000000     0.0454905  
H61      H      0.776150000000     0.934620000000     0.290930000000     0.0419421  
H62      H      0.701350000000     0.894820000000     0.322890000000     0.0458133  
H63      H      0.668660000000     0.949830000000     0.361160000000     0.0443119  
H64      H      0.776690000000     0.995370000000     0.326430000000     0.0438181  
H65      H      0.769520000000     0.014940000000     0.397800000000     0.0455101  
H66      H      0.670780000000     0.019900000000     0.390040000000     0.04529    
H67      H      0.750070000000     0.959540000000     0.265540000000     0.0446094  
H68      H      0.677470000000     0.919410000000     0.295160000000     0.0414172  
H69      H      0.686260000000     0.989860000000     0.418360000000     0.0412542  
H70      H      0.753910000000     0.046420000000     0.371160000000     0.0411566  
H71      H      0.750210000000     0.959120000000     0.683200000000     0.0446207  
H72      H      0.677600000000     0.919000000000     0.653550000000     0.0414011  
H73      H      0.668740000000     0.949540000000     0.587620000000     0.0443029  
H74      H      0.776770000000     0.995060000000     0.622370000000     0.043815   
H75      H      0.753940000000     0.046200000000     0.577780000000     0.0411786  
H76      H      0.686290000000     0.989710000000     0.530480000000     0.0412489  
H77      H      0.776280000000     0.934240000000     0.657750000000     0.0419283  
H78      H      0.701490000000     0.894460000000     0.625770000000     0.0457631  
H79      H      0.670810000000     0.019680000000     0.558890000000     0.0452817  
H80      H      0.769550000000     0.014780000000     0.551050000000     0.0455422  
H81      H      0.157220000000     0.871510000000     0.290660000000     0.0419339  
H82      H      0.196960000000     0.796660000000     0.322600000000     0.0458001  
H83      H      0.141920000000     0.764050000000     0.360920000000     0.0443285  
H84      H      0.096520000000     0.872150000000     0.326230000000     0.0438081  
H85      H      0.077010000000     0.865020000000     0.397620000000     0.0455198  
H86      H      0.071860000000     0.766280000000     0.389850000000     0.0452731  
H87      H      0.132240000000     0.845450000000     0.265300000000     0.0446268  
H88      H      0.172310000000     0.772810000000     0.294890000000     0.0414067  
H89      H      0.101950000000     0.781710000000     0.418160000000     0.0412256  
H90      H      0.045470000000     0.849480000000     0.371000000000     0.0411626  
H91      H      0.132130000000     0.845090000000     0.683380000000     0.0446152  
H92      H      0.172200000000     0.772480000000     0.653710000000     0.0414075  
H93      H      0.141870000000     0.763840000000     0.587640000000     0.0443292  
H94      H      0.096470000000     0.871890000000     0.622470000000     0.0438091  
H95      H      0.045460000000     0.849310000000     0.577630000000     0.0411815  
H96      H      0.101950000000     0.781600000000     0.530400000000     0.0412254  
H97      H      0.157130000000     0.871180000000     0.658090000000     0.0419461  
H98      H      0.196880000000     0.796370000000     0.626060000000     0.0458154  
H99      H      0.071840000000     0.766130000000     0.558660000000     0.0452742  
H100     H      0.077010000000     0.864880000000     0.551050000000     0.0455214  
H101     H      0.823640000000     0.772970000000     0.653520000000     0.0414103  
H102     H      0.863780000000     0.845550000000     0.683190000000     0.0446263  
H103     H      0.899620000000     0.872200000000     0.622340000000     0.0438204  
H104     H      0.854090000000     0.764200000000     0.587530000000     0.0443252  
H105     H      0.924190000000     0.766330000000     0.558680000000     0.0452536  
H106     H      0.919230000000     0.865080000000     0.550980000000     0.045503   
H107     H      0.799060000000     0.796870000000     0.625800000000     0.0458001  
H108     H      0.838860000000     0.871640000000     0.657810000000     0.0419724  
H109     H      0.950700000000     0.849460000000     0.577620000000     0.0411298  
H110     H      0.894160000000     0.781830000000     0.530340000000     0.0412424  
H111     H      0.798960000000     0.797210000000     0.322910000000     0.045803   
H112     H      0.838740000000     0.872010000000     0.290980000000     0.0419463  
H113     H      0.899550000000     0.872480000000     0.326390000000     0.0438202  
H114     H      0.854020000000     0.764440000000     0.361060000000     0.0443288  
H115     H      0.894150000000     0.781950000000     0.418230000000     0.0412395  
H116     H      0.950670000000     0.849630000000     0.371010000000     0.0411603  
H117     H      0.823500000000     0.773340000000     0.295130000000     0.0414301  
H118     H      0.863640000000     0.845960000000     0.265530000000     0.0446264  
H119     H      0.919240000000     0.865230000000     0.397720000000     0.0455227  
H120     H      0.924150000000     0.766490000000     0.389830000000     0.0452649  
H121     H      0.219050000000     0.252340000000     0.291330000000     0.0419602  
H122     H      0.293830000000     0.292120000000     0.323310000000     0.0457948  
H123     H      0.326580000000     0.237040000000     0.361460000000     0.0443101  
H124     H      0.218560000000     0.191520000000     0.326710000000     0.0438106  
H125     H      0.225770000000     0.171800000000     0.398030000000     0.0455193  
H126     H      0.324510000000     0.166900000000     0.390190000000     0.0452634  
H127     H      0.245110000000     0.227460000000     0.265880000000     0.0446323  
H128     H      0.317720000000     0.267590000000     0.295530000000     0.0414162  
H129     H      0.309040000000     0.196870000000     0.418600000000     0.0412458  
H130     H      0.241380000000     0.140390000000     0.371300000000     0.0411431  
H131     H      0.245260000000     0.227050000000     0.683540000000     0.0446294  
H132     H      0.317850000000     0.267180000000     0.653920000000     0.0414158  
H133     H      0.326660000000     0.236760000000     0.587920000000     0.0443241  
H134     H      0.218640000000     0.191220000000     0.622650000000     0.0438245  
H135     H      0.241410000000     0.140160000000     0.577920000000     0.0411742  
H136     H      0.309070000000     0.196720000000     0.530710000000     0.0412331  
H137     H      0.219170000000     0.251970000000     0.658150000000     0.0419431  
H138     H      0.293970000000     0.291770000000     0.626180000000     0.0457946  
H139     H      0.324550000000     0.166680000000     0.559040000000     0.0452519  
H140     H      0.225800000000     0.171640000000     0.551290000000     0.0455336  
H141     H      0.309280000000     0.988940000000     0.530560000000     0.041247   
H142     H      0.225980000000     0.013870000000     0.551150000000     0.045499   
H143     H      0.218880000000     0.994310000000     0.622530000000     0.0437929  
H144     H      0.326960000000     0.948930000000     0.587760000000     0.044371   
H145     H      0.294370000000     0.893860000000     0.626070000000     0.0458046  
H146     H      0.245610000000     0.958570000000     0.683410000000     0.044597   
H147     H      0.324720000000     0.019010000000     0.558880000000     0.0452846  
H148     H      0.241530000000     0.045380000000     0.577790000000     0.041141   
H149     H      0.219540000000     0.933580000000     0.658070000000     0.0419227  
H150     H      0.318240000000     0.918510000000     0.653760000000     0.0414054  
H151     H      0.324740000000     0.019210000000     0.390060000000     0.0452721  
H152     H      0.241550000000     0.045600000000     0.371170000000     0.0411442  
H153     H      0.218940000000     0.994590000000     0.326310000000     0.0438275  
H154     H      0.327020000000     0.949190000000     0.361050000000     0.0443127  
H155     H      0.318330000000     0.918880000000     0.294990000000     0.0414006  
H156     H      0.219630000000     0.933930000000     0.290670000000     0.0419586  
H157     H      0.309290000000     0.989080000000     0.418320000000     0.0412233  
H158     H      0.226000000000     0.014030000000     0.397740000000     0.0455065  
H159     H      0.245710000000     0.958950000000     0.265380000000     0.0446444  
H160     H      0.294470000000     0.894180000000     0.322640000000     0.0458031  
H161     H      0.809130000000     0.489850000000     0.030700000000     0.0412642  
H162     H      0.725870000000     0.514960000000     0.051270000000     0.0455325  
H163     H      0.718680000000     0.495340000000     0.122610000000     0.0438028  
H164     H      0.826700000000     0.449780000000     0.087880000000     0.0443537  
H165     H      0.794000000000     0.394750000000     0.126120000000     0.0458229  
H166     H      0.745280000000     0.459470000000     0.183480000000     0.0446104  
H167     H      0.824610000000     0.519880000000     0.059040000000     0.0452836  
H168     H      0.741480000000     0.546420000000     0.077930000000     0.0411437  
H169     H      0.719200000000     0.434560000000     0.158090000000     0.0419272  
H170     H      0.817880000000     0.419330000000     0.153850000000     0.0414375  
H171     H      0.794440000000     0.792740000000     0.126040000000     0.0457989  
H172     H      0.719610000000     0.753030000000     0.158040000000     0.0419449  
H173     H      0.718960000000     0.692300000000     0.122520000000     0.0438241  
H174     H      0.827040000000     0.737670000000     0.087740000000     0.0443187  
H175     H      0.809350000000     0.697650000000     0.030540000000     0.0412444  
H176     H      0.741610000000     0.641220000000     0.077790000000     0.04119    
H177     H      0.818310000000     0.768110000000     0.153740000000     0.0414025  
H178     H      0.745680000000     0.728060000000     0.183400000000     0.044626   
H179     H      0.726060000000     0.672730000000     0.051140000000     0.0455616  
H180     H      0.824800000000     0.667590000000     0.058870000000     0.0452657  
H181     H      0.741620000000     0.641000000000     0.871160000000     0.0411482  
H182     H      0.824810000000     0.667380000000     0.890060000000     0.0452821  
H183     H      0.827080000000     0.737410000000     0.861070000000     0.0443159  
H184     H      0.719000000000     0.692020000000     0.826330000000     0.0438199  
H185     H      0.745760000000     0.727680000000     0.765410000000     0.0446214  
H186     H      0.794520000000     0.792430000000     0.822680000000     0.0457888  
H187     H      0.726070000000     0.672560000000     0.897750000000     0.0455021  
H188     H      0.809360000000     0.697500000000     0.918330000000     0.0412331  
H189     H      0.818390000000     0.767740000000     0.795030000000     0.0413791  
H190     H      0.719680000000     0.752700000000     0.790710000000     0.0419396  
H191     H      0.793880000000     0.394430000000     0.823340000000     0.045762   
H192     H      0.719100000000     0.434210000000     0.791360000000     0.041974   
H193     H      0.718620000000     0.495040000000     0.826730000000     0.0438644  
H194     H      0.826640000000     0.449520000000     0.861480000000     0.0442878  
H195     H      0.809110000000     0.489710000000     0.918610000000     0.0412117  
H196     H      0.741450000000     0.546190000000     0.871300000000     0.0411869  
H197     H      0.817780000000     0.418950000000     0.795560000000     0.0413795  
H198     H      0.745160000000     0.459080000000     0.765910000000     0.0446536  
H199     H      0.725840000000     0.514790000000     0.898040000000     0.0455493  
H200     H      0.824580000000     0.519670000000     0.890190000000     0.0452479  
H201     H      0.657180000000     0.815450000000     0.158030000000     0.0419549  
H202     H      0.696920000000     0.890250000000     0.126000000000     0.045802   
H203     H      0.641900000000     0.922800000000     0.087610000000     0.0443243  
H204     H      0.596500000000     0.814760000000     0.122440000000     0.0438387  
H205     H      0.577020000000     0.821780000000     0.051030000000     0.0455209  
H206     H      0.571850000000     0.920520000000     0.058660000000     0.0452695  
H207     H      0.632190000000     0.841540000000     0.183340000000     0.0446263  
H208     H      0.672260000000     0.914140000000     0.153660000000     0.0413989  
H209     H      0.601950000000     0.905050000000     0.030380000000     0.0412383  
H210     H      0.545470000000     0.837350000000     0.077620000000     0.0411597  
H211     H      0.424170000000     0.920330000000     0.058680000000     0.0452714  
H212     H      0.450700000000     0.837210000000     0.077630000000     0.041178   
H213     H      0.399600000000     0.814440000000     0.122310000000     0.0438362  
H214     H      0.354060000000     0.922440000000     0.087500000000     0.0443383  
H215     H      0.323590000000     0.913650000000     0.153480000000     0.0414312  
H216     H      0.338820000000     0.814970000000     0.157770000000     0.0419486  
H217     H      0.394150000000     0.904820000000     0.030340000000     0.0412656  
H218     H      0.419240000000     0.821580000000     0.050970000000     0.0455659  
H219     H      0.363730000000     0.841070000000     0.183150000000     0.044612   
H220     H      0.299010000000     0.889750000000     0.125750000000     0.0458168  
H221     H      0.338720000000     0.814630000000     0.791020000000     0.0419485  
H222     H      0.298920000000     0.889430000000     0.822950000000     0.0457901  
H223     H      0.353980000000     0.922210000000     0.861080000000     0.0443117  
H224     H      0.399540000000     0.814170000000     0.826410000000     0.0438201  
H225     H      0.419240000000     0.821430000000     0.897720000000     0.0455097  
H226     H      0.424120000000     0.920170000000     0.889830000000     0.0452647  
H227     H      0.363590000000     0.840680000000     0.765560000000     0.0446421  
H228     H      0.323450000000     0.913300000000     0.795160000000     0.0414217  
H229     H      0.394140000000     0.904710000000     0.918240000000     0.0412273  
H230     H      0.450660000000     0.837030000000     0.871000000000     0.0411562  
H231     H      0.571860000000     0.920380000000     0.889840000000     0.0452672  
H232     H      0.545480000000     0.837190000000     0.870990000000     0.0411874  
H233     H      0.596540000000     0.814500000000     0.826240000000     0.0438082  
H234     H      0.641940000000     0.922590000000     0.860940000000     0.0443135  
H235     H      0.672350000000     0.913820000000     0.794940000000     0.0413946  
H236     H      0.657260000000     0.815120000000     0.790690000000     0.0419278  
H237     H      0.601940000000     0.904950000000     0.918160000000     0.0412119  
H238     H      0.577000000000     0.821650000000     0.897620000000     0.0455395  
H239     H      0.632280000000     0.841180000000     0.765340000000     0.0446095  
H240     H      0.697000000000     0.889970000000     0.822640000000     0.0457831  
H241     H      0.276230000000     0.752370000000     0.157710000000     0.0419352  
H242     H      0.201440000000     0.792160000000     0.125730000000     0.0457945  
H243     H      0.168680000000     0.737070000000     0.087600000000     0.0443251  
H244     H      0.276710000000     0.691540000000     0.122350000000     0.0438244  
H245     H      0.269480000000     0.671790000000     0.051040000000     0.0455695  
H246     H      0.170740000000     0.666910000000     0.058890000000     0.0452819  
H247     H      0.250160000000     0.727510000000     0.183170000000     0.0446296  
H248     H      0.177550000000     0.767640000000     0.153520000000     0.0414202  
H249     H      0.186210000000     0.696870000000     0.030470000000     0.0412773  
H250     H      0.253870000000     0.640390000000     0.077780000000     0.0411903  
H251     H      0.269250000000     0.514020000000     0.051330000000     0.0455585  
H252     H      0.185960000000     0.489080000000     0.030750000000     0.0412389  
H253     H      0.168250000000     0.449160000000     0.088000000000     0.0443101  
H254     H      0.276330000000     0.494560000000     0.122740000000     0.0438333  
H255     H      0.275650000000     0.433880000000     0.158360000000     0.0419506  
H256     H      0.176940000000     0.418830000000     0.154040000000     0.0413951  
H257     H      0.253700000000     0.545580000000     0.077910000000     0.0411953  
H258     H      0.170510000000     0.519200000000     0.059020000000     0.0452692  
H259     H      0.200810000000     0.394140000000     0.126390000000     0.0458036  
H260     H      0.249570000000     0.458900000000     0.183660000000     0.0446355  
H261     H      0.177010000000     0.418480000000     0.795330000000     0.0414028  
H262     H      0.249640000000     0.458540000000     0.765670000000     0.0446177  
H263     H      0.276360000000     0.494290000000     0.826550000000     0.0438119  
H264     H      0.168280000000     0.448920000000     0.861330000000     0.0443228  
H265     H      0.170520000000     0.519000000000     0.890210000000     0.0452543  
H266     H      0.269260000000     0.513860000000     0.897930000000     0.0455255  
H267     H      0.200880000000     0.393850000000     0.823030000000     0.0457877  
H268     H      0.275710000000     0.433570000000     0.791030000000     0.0419393  
H269     H      0.253710000000     0.545370000000     0.871280000000     0.041172   
H270     H      0.185970000000     0.488940000000     0.918540000000     0.0411964  
H271     H      0.250030000000     0.727100000000     0.765580000000     0.044618   
H272     H      0.177430000000     0.767240000000     0.795210000000     0.0414128  
H273     H      0.168610000000     0.736790000000     0.861190000000     0.0443342  
H274     H      0.276630000000     0.691240000000     0.826460000000     0.0438201  
H275     H      0.253840000000     0.640170000000     0.871160000000     0.0411601  
H276     H      0.186190000000     0.696730000000     0.918390000000     0.0412345  
H277     H      0.276110000000     0.752010000000     0.790980000000     0.0419464  
H278     H      0.201310000000     0.791820000000     0.822960000000     0.0457829  
H279     H      0.170710000000     0.666700000000     0.890040000000     0.0452683  
H280     H      0.269450000000     0.671630000000     0.897810000000     0.0455167  
H281     H      0.322980000000     0.272750000000     0.154150000000     0.0414117  
H282     H      0.363040000000     0.345390000000     0.183750000000     0.0446018  
H283     H      0.398780000000     0.372080000000     0.122840000000     0.0437875  
H284     H      0.353390000000     0.263990000000     0.088140000000     0.0443501  
H285     H      0.423460000000     0.266210000000     0.059230000000     0.045281   
H286     H      0.418310000000     0.364940000000     0.051450000000     0.0455223  
H287     H      0.298340000000     0.296610000000     0.126440000000     0.0458231  
H288     H      0.338070000000     0.371450000000     0.158390000000     0.0419215  
H289     H      0.449840000000     0.349400000000     0.078080000000     0.041163   
H290     H      0.393370000000     0.281640000000     0.030910000000     0.0412447  
H291     H      0.631720000000     0.345900000000     0.183520000000     0.0446341  
H292     H      0.671870000000     0.273270000000     0.153920000000     0.0414091  
H293     H      0.641330000000     0.264370000000     0.087990000000     0.0443142  
H294     H      0.595780000000     0.372410000000     0.122670000000     0.0438415  
H295     H      0.544660000000     0.349550000000     0.078070000000     0.0411702  
H296     H      0.601180000000     0.281870000000     0.030840000000     0.0412577  
H297     H      0.656600000000     0.371950000000     0.158060000000     0.0419363  
H298     H      0.696390000000     0.297150000000     0.126130000000     0.0458014  
H299     H      0.571190000000     0.266410000000     0.059240000000     0.0452744  
H300     H      0.576080000000     0.365150000000     0.051360000000     0.0455349  
H301     H      0.671740000000     0.272930000000     0.795590000000     0.0414149  
H302     H      0.631600000000     0.345520000000     0.765920000000     0.0446355  
H303     H      0.595720000000     0.372150000000     0.826770000000     0.0438071  
H304     H      0.641260000000     0.264150000000     0.861570000000     0.0443241  
H305     H      0.571160000000     0.266260000000     0.890390000000     0.045268   
H306     H      0.576090000000     0.365010000000     0.898110000000     0.0455172  
H307     H      0.696300000000     0.296830000000     0.823320000000     0.0457937  
H308     H      0.656500000000     0.371600000000     0.791310000000     0.0419721  
H309     H      0.544630000000     0.349390000000     0.871450000000     0.0411658  
H310     H      0.601170000000     0.281760000000     0.918740000000     0.0412279  
H311     H      0.363130000000     0.345050000000     0.765740000000     0.0446213  
H312     H      0.323060000000     0.272450000000     0.795410000000     0.0414001  
H313     H      0.353420000000     0.263790000000     0.861460000000     0.0443102  
H314     H      0.398820000000     0.371840000000     0.826630000000     0.0438051  
H315     H      0.449850000000     0.349240000000     0.871450000000     0.0411968  
H316     H      0.393370000000     0.281540000000     0.918700000000     0.0411954  
H317     H      0.338140000000     0.371150000000     0.791040000000     0.0419417  
H318     H      0.298400000000     0.296340000000     0.823080000000     0.0457998  
H319     H      0.423470000000     0.266070000000     0.890410000000     0.0452587  
H320     H      0.418310000000     0.364810000000     0.898040000000     0.0455324  
N1       N      0.175200000000     0.362690000000     0.665750000000    -0.171371   
N2       N      0.063320000000     0.371140000000     0.543440000000    -0.171417   
N3       N      0.063320000000     0.371260000000     0.406120000000    -0.171477   
N4       N      0.175070000000     0.363080000000     0.283660000000    -0.171356   
N5       N      0.931180000000     0.371430000000     0.406100000000    -0.171491   
N6       N      0.819670000000     0.363580000000     0.283410000000    -0.171253   
N7       N      0.931170000000     0.371310000000     0.543450000000    -0.171456   
N8       N      0.819570000000     0.363250000000     0.666060000000    -0.171443   
N9       N      0.727510000000     0.271160000000     0.666010000000    -0.171276   
N10      N      0.719590000000     0.159690000000     0.543290000000    -0.171507   
N11      N      0.719600000000     0.159850000000     0.405940000000    -0.171512   
N12      N      0.727600000000     0.271520000000     0.283400000000    -0.171353   
N13      N      0.719760000000     0.027710000000     0.405800000000    -0.171481   
N14      N      0.728010000000     0.916020000000     0.283300000000    -0.17129    
N15      N      0.719770000000     0.027550000000     0.543110000000    -0.171488   
N16      N      0.728140000000     0.915620000000     0.665390000000    -0.171346   
N17      N      0.064150000000     0.815270000000     0.405620000000    -0.171507   
N18      N      0.175750000000     0.823340000000     0.283020000000    -0.171312   
N19      N      0.064140000000     0.815150000000     0.542970000000    -0.17148    
N20      N      0.175650000000     0.823000000000     0.665660000000    -0.171309   
N21      N      0.932000000000     0.815320000000     0.542950000000    -0.171494   
N22      N      0.820260000000     0.823500000000     0.665410000000    -0.171285   
N23      N      0.932000000000     0.815450000000     0.405640000000    -0.171479   
N24      N      0.820130000000     0.823890000000     0.283310000000    -0.171304   
N25      N      0.275550000000     0.159040000000     0.405970000000    -0.171498   
N26      N      0.267180000000     0.270960000000     0.283690000000    -0.171318   
N27      N      0.275570000000     0.158880000000     0.543280000000    -0.171424   
N28      N      0.267320000000     0.270570000000     0.665780000000    -0.17136    
N29      N      0.267720000000     0.915060000000     0.665670000000    -0.17135    
N30      N      0.275720000000     0.026730000000     0.543140000000    -0.171507   
N31      N      0.267820000000     0.915420000000     0.283060000000    -0.171343   
N32      N      0.275730000000     0.026890000000     0.405790000000    -0.171496   
N33      N      0.767340000000     0.415950000000     0.165720000000    -0.171373   
N34      N      0.775640000000     0.527710000000     0.043280000000    -0.171456   
N35      N      0.775800000000     0.659860000000     0.043140000000    -0.171394   
N36      N      0.767780000000     0.771560000000     0.165650000000    -0.171413   
N37      N      0.767870000000     0.771200000000     0.783100000000    -0.171393   
N38      N      0.775800000000     0.659700000000     0.905790000000    -0.171373   
N39      N      0.775620000000     0.527540000000     0.905970000000    -0.171493   
N40      N      0.767230000000     0.415580000000     0.783720000000    -0.171423   
N41      N      0.564150000000     0.871510000000     0.042960000000    -0.171438   
N42      N      0.675700000000     0.863630000000     0.165610000000    -0.171322   
N43      N      0.320210000000     0.863120000000     0.165370000000    -0.171342   
N44      N      0.432000000000     0.871340000000     0.042950000000    -0.171467   
N45      N      0.431990000000     0.871220000000     0.905640000000    -0.171473   
N46      N      0.320090000000     0.862750000000     0.783350000000    -0.171289   
N47      N      0.675800000000     0.863290000000     0.783060000000    -0.171403   
N48      N      0.564140000000     0.871390000000     0.905610000000    -0.171395   
N49      N      0.219700000000     0.659040000000     0.043110000000    -0.171472   
N50      N      0.228100000000     0.771000000000     0.165350000000    -0.17128    
N51      N      0.227460000000     0.415380000000     0.165970000000    -0.171254   
N52      N      0.219520000000     0.526890000000     0.043280000000    -0.171476   
N53      N      0.219520000000     0.526730000000     0.905940000000    -0.171464   
N54      N      0.227530000000     0.415040000000     0.783420000000    -0.171289   
N55      N      0.219680000000     0.658880000000     0.905800000000    -0.171416   
N56      N      0.227970000000     0.770620000000     0.783350000000    -0.171399   
N57      N      0.431170000000     0.315200000000     0.043460000000    -0.171428   
N58      N      0.319540000000     0.323280000000     0.166020000000    -0.171334   
N59      N      0.563330000000     0.315370000000     0.043440000000    -0.171454   
N60      N      0.675230000000     0.323820000000     0.165730000000    -0.171303   
N61      N      0.563320000000     0.315250000000     0.906120000000    -0.171468   
N62      N      0.675110000000     0.323460000000     0.783700000000    -0.171305   
N63      N      0.431180000000     0.315080000000     0.906110000000    -0.171475   
N64      N      0.319610000000     0.322970000000     0.783470000000    -0.171363   
Ni1      Ni     0.497210000000     0.343610000000     0.974760000000     1.01962    
Ni2      Ni     0.497280000000     0.285420000000     0.974810000000     0.983402   
Ni3      Ni     0.248000000000     0.592840000000     0.974530000000     1.01965    
Ni4      Ni     0.189800000000     0.592910000000     0.974540000000     0.983697   
Ni5      Ni     0.498040000000     0.901170000000     0.974260000000     0.983487   
Ni6      Ni     0.498120000000     0.842970000000     0.974310000000     1.0196     
Ni7      Ni     0.747320000000     0.593750000000     0.974540000000     1.01949    
Ni8      Ni     0.805520000000     0.593670000000     0.974540000000     0.98343    
Ni9      Ni     0.247250000000     0.092840000000     0.474550000000     1.01993    
Ni10     Ni     0.305450000000     0.092910000000     0.474540000000     0.983739   
Ni11     Ni     0.998120000000     0.843690000000     0.474320000000     1.0196     
Ni12     Ni     0.998050000000     0.785490000000     0.474260000000     0.983749   
Ni13     Ni     0.748070000000     0.093740000000     0.474530000000     1.02004    
Ni14     Ni     0.689870000000     0.093670000000     0.474540000000     0.983425   
Ni15     Ni     0.997270000000     0.401090000000     0.474810000000     0.983527   
Ni16     Ni     0.997200000000     0.342890000000     0.474750000000     1.01963    
Ni17     Ni     0.229750000000     0.325620000000     0.209630000000     1.00167    
Ni18     Ni     0.264860000000     0.360730000000     0.240060000000     1.00148    
Ni19     Ni     0.765010000000     0.326180000000     0.209340000000     1.00152    
Ni20     Ni     0.729900000000     0.361290000000     0.239770000000     1.00144    
Ni21     Ni     0.764900000000     0.325810000000     0.740100000000     1.00147    
Ni22     Ni     0.729790000000     0.360920000000     0.709670000000     1.00182    
Ni23     Ni     0.730350000000     0.826230000000     0.239690000000     1.00178    
Ni24     Ni     0.765470000000     0.861340000000     0.209260000000     1.00136    
Ni25     Ni     0.730470000000     0.825850000000     0.709020000000     1.00178    
Ni26     Ni     0.765580000000     0.860960000000     0.739450000000     1.00171    
Ni27     Ni     0.265530000000     0.825670000000     0.239400000000     1.00176    
Ni28     Ni     0.230420000000     0.860780000000     0.208980000000     1.00138    
Ni29     Ni     0.265420000000     0.825290000000     0.709310000000     1.00147    
Ni30     Ni     0.230300000000     0.860400000000     0.739740000000     1.00199    
Ni31     Ni     0.229850000000     0.325250000000     0.739810000000     1.00127    
Ni32     Ni     0.264970000000     0.360350000000     0.709380000000     1.00189    
O1       O      0.464760000000     0.341730000000     0.008170000000    -0.454235   
O2       O      0.529660000000     0.341760000000     0.941360000000    -0.454299   
O3       O      0.464760000000     0.341680000000     0.941360000000    -0.454237   
O4       O      0.529660000000     0.341820000000     0.008170000000    -0.454159   
O5       O      0.530720000000     0.287490000000     0.007730000000    -0.445029   
O6       O      0.463830000000     0.287350000000     0.941880000000    -0.445138   
O7       O      0.530720000000     0.287430000000     0.941880000000    -0.445116   
O8       O      0.463840000000     0.287400000000     0.007730000000    -0.445038   
O9       O      0.246090000000     0.560350000000     0.941170000000    -0.454252   
O10      O      0.246170000000     0.625330000000     0.007900000000    -0.4543     
O11      O      0.246090000000     0.560430000000     0.007980000000    -0.454304   
O12      O      0.246170000000     0.625250000000     0.941090000000    -0.454352   
O13      O      0.191840000000     0.626310000000     0.941580000000    -0.445186   
O14      O      0.191760000000     0.559510000000     0.007500000000    -0.445187   
O15      O      0.191840000000     0.626390000000     0.007420000000    -0.445013   
O16      O      0.191750000000     0.559430000000     0.941650000000    -0.445068   
O17      O      0.531480000000     0.899190000000     0.941340000000    -0.445145   
O18      O      0.464600000000     0.899160000000     0.007190000000    -0.44497    
O19      O      0.531490000000     0.899240000000     0.007190000000    -0.445003   
O20      O      0.464600000000     0.899100000000     0.941340000000    -0.445161   
O21      O      0.465660000000     0.844770000000     0.940910000000    -0.454276   
O22      O      0.530570000000     0.844910000000     0.007710000000    -0.454326   
O23      O      0.465660000000     0.844830000000     0.007720000000    -0.454232   
O24      O      0.530560000000     0.844850000000     0.940900000000    -0.454312   
O25      O      0.749150000000     0.561330000000     0.007990000000    -0.454122   
O26      O      0.749230000000     0.626150000000     0.941100000000    -0.454252   
O27      O      0.749150000000     0.561250000000     0.941180000000    -0.454368   
O28      O      0.749230000000     0.626240000000     0.007910000000    -0.454125   
O29      O      0.803570000000     0.627160000000     0.007430000000    -0.444922   
O30      O      0.803480000000     0.560190000000     0.941650000000    -0.445026   
O31      O      0.803570000000     0.627070000000     0.941580000000    -0.445067   
O32      O      0.803480000000     0.560270000000     0.007500000000    -0.445098   
O33      O      0.249160000000     0.060350000000     0.507910000000    -0.45442    
O34      O      0.249080000000     0.125340000000     0.441190000000    -0.454387   
O35      O      0.249160000000     0.060430000000     0.441100000000    -0.454358   
O36      O      0.249080000000     0.125250000000     0.507990000000    -0.454384   
O37      O      0.303410000000     0.126310000000     0.507510000000    -0.445181   
O38      O      0.303490000000     0.059510000000     0.441580000000    -0.44519    
O39      O      0.303410000000     0.126390000000     0.441660000000    -0.445093   
O40      O      0.303490000000     0.059430000000     0.507430000000    -0.445112   
O41      O      0.030570000000     0.841810000000     0.440910000000    -0.454345   
O42      O      0.965660000000     0.841830000000     0.507720000000    -0.454346   
O43      O      0.030570000000     0.841750000000     0.507720000000    -0.454253   
O44      O      0.965660000000     0.841890000000     0.440910000000    -0.454336   
O45      O      0.964610000000     0.787560000000     0.441340000000    -0.445133   
O46      O      0.031490000000     0.787420000000     0.507190000000    -0.445204   
O47      O      0.964610000000     0.787500000000     0.507190000000    -0.445043   
O48      O      0.031490000000     0.787480000000     0.441340000000    -0.445189   
O49      O      0.746160000000     0.126150000000     0.507980000000    -0.454365   
O50      O      0.746240000000     0.061330000000     0.441090000000    -0.454529   
O51      O      0.746160000000     0.126230000000     0.441170000000    -0.454446   
O52      O      0.746250000000     0.061250000000     0.507900000000    -0.454463   
O53      O      0.691920000000     0.060190000000     0.507420000000    -0.445141   
O54      O      0.691830000000     0.127160000000     0.441650000000    -0.445038   
O55      O      0.691910000000     0.060270000000     0.441570000000    -0.445082   
O56      O      0.691830000000     0.127080000000     0.507500000000    -0.445111   
O57      O      0.963820000000     0.399110000000     0.507730000000    -0.445      
O58      O      0.030710000000     0.399080000000     0.441880000000    -0.444971   
O59      O      0.963830000000     0.399160000000     0.441880000000    -0.445107   
O60      O      0.030710000000     0.399020000000     0.507730000000    -0.445054   
O61      O      0.029660000000     0.344690000000     0.508160000000    -0.45429    
O62      O      0.964750000000     0.344830000000     0.441350000000    -0.454388   
O63      O      0.029660000000     0.344750000000     0.441350000000    -0.454309   
O64      O      0.964750000000     0.344770000000     0.508160000000    -0.454338   
O65      O      0.195580000000     0.337340000000     0.238990000000    -0.451891   
O66      O      0.266800000000     0.315460000000     0.182560000000    -0.447727   
O67      O      0.241440000000     0.291470000000     0.239010000000    -0.451861   
O68      O      0.219610000000     0.362650000000     0.182530000000    -0.447619   
O69      O      0.253160000000     0.394890000000     0.210680000000    -0.451754   
O70      O      0.275000000000     0.323700000000     0.267160000000    -0.447507   
O71      O      0.299020000000     0.349020000000     0.210700000000    -0.451934   
O72      O      0.227810000000     0.370890000000     0.267140000000    -0.447627   
O73      O      0.775160000000     0.363220000000     0.182250000000    -0.447593   
O74      O      0.753310000000     0.292020000000     0.238710000000    -0.451923   
O75      O      0.727970000000     0.316020000000     0.182250000000    -0.447587   
O76      O      0.799170000000     0.337880000000     0.238700000000    -0.451825   
O77      O      0.766940000000     0.371440000000     0.266860000000    -0.447529   
O78      O      0.695740000000     0.349580000000     0.210400000000    -0.451783   
O79      O      0.719750000000     0.324250000000     0.266850000000    -0.447692   
O80      O      0.741600000000     0.395450000000     0.210400000000    -0.451819   
O81      O      0.727860000000     0.315650000000     0.767180000000    -0.447544   
O82      O      0.799060000000     0.337520000000     0.710730000000    -0.451969   
O83      O      0.775040000000     0.362850000000     0.767190000000    -0.447713   
O84      O      0.753210000000     0.291650000000     0.710720000000    -0.451699   
O85      O      0.719650000000     0.323890000000     0.682580000000    -0.447738   
O86      O      0.741480000000     0.395070000000     0.739050000000    -0.451977   
O87      O      0.766840000000     0.371080000000     0.682590000000    -0.447689   
O88      O      0.695630000000     0.349210000000     0.739030000000    -0.451876   
O89      O      0.742060000000     0.792070000000     0.210330000000    -0.451842   
O90      O      0.720200000000     0.863280000000     0.266770000000    -0.447652   
O91      O      0.696200000000     0.837930000000     0.210320000000    -0.451816   
O92      O      0.767390000000     0.816080000000     0.266780000000    -0.447673   
O93      O      0.799630000000     0.849640000000     0.238640000000    -0.451691   
O94      O      0.728430000000     0.871480000000     0.182160000000    -0.447553   
O95      O      0.753760000000     0.895500000000     0.238620000000    -0.451885   
O96      O      0.775630000000     0.824290000000     0.182180000000    -0.447528   
O97      O      0.696310000000     0.837560000000     0.738380000000    -0.452052   
O98      O      0.767510000000     0.815690000000     0.681940000000    -0.447613   
O99      O      0.742160000000     0.791690000000     0.738400000000    -0.451794   
O100     O      0.720320000000     0.862880000000     0.681930000000    -0.447563   
O101     O      0.753880000000     0.895110000000     0.710070000000    -0.45194    
O102     O      0.775720000000     0.823920000000     0.766540000000    -0.447677   
O103     O      0.799740000000     0.849240000000     0.710090000000    -0.451969   
O104     O      0.728530000000     0.871120000000     0.766520000000    -0.447734   
O105     O      0.228490000000     0.815510000000     0.266480000000    -0.447702   
O106     O      0.299690000000     0.837380000000     0.210040000000    -0.452009   
O107     O      0.275670000000     0.862700000000     0.266500000000    -0.447688   
O108     O      0.253840000000     0.791510000000     0.210030000000    -0.45184    
O109     O      0.220280000000     0.823740000000     0.181880000000    -0.447552   
O110     O      0.242120000000     0.894930000000     0.238350000000    -0.451965   
O111     O      0.267470000000     0.870940000000     0.181890000000    -0.447479   
O112     O      0.196260000000     0.849070000000     0.238340000000    -0.45194    
O113     O      0.275570000000     0.862330000000     0.682220000000    -0.447596   
O114     O      0.253720000000     0.791130000000     0.738680000000    -0.451839   
O115     O      0.228380000000     0.815140000000     0.682220000000    -0.447625   
O116     O      0.299580000000     0.836990000000     0.738680000000    -0.45176    
O117     O      0.267340000000     0.870550000000     0.766820000000    -0.44765    
O118     O      0.196150000000     0.848690000000     0.710370000000    -0.452038   
O119     O      0.220160000000     0.823360000000     0.766820000000    -0.447719   
O120     O      0.242010000000     0.894550000000     0.710370000000    -0.45199    
O121     O      0.241570000000     0.291080000000     0.710450000000    -0.451869   
O122     O      0.219690000000     0.362300000000     0.766890000000    -0.447473   
O123     O      0.195700000000     0.336950000000     0.710430000000    -0.451944   
O124     O      0.266890000000     0.315110000000     0.766910000000    -0.447557   
O125     O      0.299120000000     0.348660000000     0.738760000000    -0.451986   
O126     O      0.227930000000     0.370500000000     0.682290000000    -0.447746   
O127     O      0.253260000000     0.394520000000     0.738740000000    -0.451829   
O128     O      0.275120000000     0.323310000000     0.682310000000    -0.447885   


