data_structure

_audit_creation_method RASPA-1.0
_audit_creation_date 2023-5-23
_audit_author_name 'Poobodin Mano'

_cell_length_a    29.2295
_cell_length_b    29.2295
_cell_length_c    58.4266
_cell_angle_alpha 90
_cell_angle_beta  90
_cell_angle_gamma 90
_cell_volume      49917.6

_symmetry_cell_setting          triclinic
_symmetry_space_group_name_Hall 'P 1'
_symmetry_space_group_name_H-M  'P 1'
_symmetry_Int_Tables_number     1

_symmetry_equiv_pos_as_xyz 'x,y,z'

loop_
_atom_site_label
_atom_site_type_symbol
_atom_site_fract_x
_atom_site_fract_y
_atom_site_fract_z
_atom_site_charge
C1       C      0.995740000000     0.996380000000     0.164770000000     0.432691   
C2       C      0.995650000000     0.996160000000     0.077600000000     0.431249   
C3       C      0.995070000000     0.909130000000     0.121280000000     0.431763   
C4       C      0.996320000000     0.083420000000     0.121170000000     0.431588   
C5       C      0.995730000000     0.496210000000     0.164790000000     0.432612   
C6       C      0.995630000000     0.496310000000     0.077620000000     0.431613   
C7       C      0.995000000000     0.409120000000     0.121220000000     0.431499   
C8       C      0.996360000000     0.583420000000     0.121270000000     0.431663   
C9       C      0.495770000000     0.082910000000     0.121130000000     0.431953   
C10      C      0.497140000000     0.908620000000     0.121270000000     0.432112   
C11      C      0.496390000000     0.995910000000     0.164750000000     0.432719   
C12      C      0.496510000000     0.995610000000     0.077570000000     0.431794   
C13      C      0.497080000000     0.408620000000     0.121240000000     0.432003   
C14      C      0.495830000000     0.582910000000     0.121320000000     0.432076   
C15      C      0.496490000000     0.495840000000     0.077660000000     0.431753   
C16      C      0.496410000000     0.495680000000     0.164830000000     0.432633   
C17      C      0.992220000000     0.908610000000     0.871020000000     0.43135    
C18      C      0.998770000000     0.082820000000     0.871040000000     0.431104   
C19      C      0.995520000000     0.995700000000     0.914620000000     0.431654   
C20      C      0.995460000000     0.995740000000     0.827460000000     0.431987   
C21      C      0.992210000000     0.582820000000     0.871020000000     0.431491   
C22      C      0.998820000000     0.408610000000     0.871080000000     0.431065   
C23      C      0.995520000000     0.495790000000     0.914650000000     0.431575   
C24      C      0.995530000000     0.495650000000     0.827480000000     0.43239    
C25      C      0.496300000000     0.995530000000     0.827430000000     0.432483   
C26      C      0.496470000000     0.995230000000     0.914600000000     0.431562   
C27      C      0.499700000000     0.082480000000     0.871070000000     0.431592   
C28      C      0.493090000000     0.908260000000     0.870930000000     0.431528   
C29      C      0.496370000000     0.495250000000     0.827520000000     0.432755   
C30      C      0.496460000000     0.495490000000     0.914680000000     0.431742   
C31      C      0.499690000000     0.408260000000     0.871150000000     0.431511   
C32      C      0.493140000000     0.582480000000     0.871030000000     0.431534   
C33      C      0.908740000000     0.993390000000     0.371010000000     0.431482   
C34      C      0.082950000000     0.999950000000     0.371050000000     0.430962   
C35      C      0.995890000000     0.996690000000     0.327460000000     0.431954   
C36      C      0.995800000000     0.996640000000     0.414620000000     0.431469   
C37      C      0.995790000000     0.495700000000     0.327480000000     0.432166   
C38      C      0.995900000000     0.495530000000     0.414650000000     0.431672   
C39      C      0.082950000000     0.498910000000     0.371020000000     0.431537   
C40      C      0.908740000000     0.492300000000     0.371080000000     0.431636   
C41      C      0.495830000000     0.996650000000     0.414600000000     0.431467   
C42      C      0.495850000000     0.996630000000     0.327430000000     0.432168   
C43      C      0.582950000000     0.993340000000     0.371000000000     0.431482   
C44      C      0.408740000000     0.999960000000     0.371000000000     0.431076   
C45      C      0.582950000000     0.492310000000     0.371130000000     0.431685   
C46      C      0.408740000000     0.498870000000     0.371050000000     0.431615   
C47      C      0.495930000000     0.495640000000     0.327520000000     0.432791   
C48      C      0.495770000000     0.495540000000     0.414690000000     0.431839   
C49      C      0.082770000000     0.996900000000     0.621250000000     0.431716   
C50      C      0.908480000000     0.995650000000     0.621200000000     0.431639   
C51      C      0.995580000000     0.996170000000     0.664770000000     0.432369   
C52      C      0.995670000000     0.996380000000     0.577600000000     0.431493   
C53      C      0.082960000000     0.494680000000     0.621270000000     0.431863   
C54      C      0.908670000000     0.496040000000     0.621220000000     0.431915   
C55      C      0.995770000000     0.495370000000     0.664790000000     0.432815   
C56      C      0.995860000000     0.495360000000     0.577620000000     0.431617   
C57      C      0.408480000000     0.995590000000     0.621240000000     0.431721   
C58      C      0.582770000000     0.996960000000     0.621150000000     0.431905   
C59      C      0.495740000000     0.996130000000     0.664750000000     0.432688   
C60      C      0.495540000000     0.996400000000     0.577570000000     0.431689   
C61      C      0.495910000000     0.495320000000     0.664830000000     0.432755   
C62      C      0.495740000000     0.495380000000     0.577660000000     0.431775   
C63      C      0.408670000000     0.495980000000     0.621320000000     0.43207    
C64      C      0.582960000000     0.494720000000     0.621240000000     0.432057   
C65      C      0.834370000000     0.454450000000     0.621100000000    -0.0202084  
C66      C      0.657260000000     0.536350000000     0.621100000000    -0.0202257  
C67      C      0.657650000000     0.453180000000     0.621540000000    -0.0203865  
C68      C      0.705070000000     0.471370000000     0.621420000000     0.0132513  
C69      C      0.704810000000     0.518790000000     0.621300000000     0.0130671  
C70      C      0.745510000000     0.544160000000     0.621350000000    -0.0656518  
C71      C      0.833990000000     0.537610000000     0.621520000000    -0.0202842  
C72      C      0.746130000000     0.446640000000     0.621360000000    -0.0656837  
C73      C      0.786570000000     0.519420000000     0.621410000000     0.0132026  
C74      C      0.786830000000     0.472000000000     0.621300000000     0.0130892  
C75      C      0.157270000000     0.536270000000     0.621190000000    -0.020169   
C76      C      0.334370000000     0.454360000000     0.621210000000    -0.0201613  
C77      C      0.333990000000     0.537520000000     0.621670000000    -0.0203596  
C78      C      0.286570000000     0.519340000000     0.621550000000     0.013229   
C79      C      0.286830000000     0.471910000000     0.621420000000     0.013067   
C80      C      0.246120000000     0.446550000000     0.621460000000    -0.0656638  
C81      C      0.157640000000     0.453110000000     0.621600000000    -0.0203618  
C82      C      0.245510000000     0.544070000000     0.621480000000    -0.0656219  
C83      C      0.205070000000     0.471290000000     0.621510000000     0.0132566  
C84      C      0.204810000000     0.518710000000     0.621410000000     0.0130568  
C85      C      0.657080000000     0.955360000000     0.620990000000    -0.0201169  
C86      C      0.834180000000     0.037270000000     0.621080000000    -0.0201696  
C87      C      0.833800000000     0.954110000000     0.621470000000    -0.0201928  
C88      C      0.786380000000     0.972300000000     0.621360000000     0.012822   
C89      C      0.786640000000     0.019720000000     0.621260000000     0.0134555  
C90      C      0.745940000000     0.045080000000     0.621320000000    -0.0658848  
C91      C      0.657450000000     0.038530000000     0.621470000000    -0.0203808  
C92      C      0.745320000000     0.947560000000     0.621270000000    -0.0654311  
C93      C      0.704880000000     0.020340000000     0.621360000000     0.0136186  
C94      C      0.704620000000     0.972920000000     0.621210000000     0.0126882  
C95      C      0.157460000000     0.038450000000     0.621620000000    -0.0203839  
C96      C      0.333800000000     0.954020000000     0.621550000000    -0.020306   
C97      C      0.334180000000     0.037190000000     0.621190000000    -0.0201909  
C98      C      0.286640000000     0.019630000000     0.621380000000     0.0134626  
C99      C      0.286380000000     0.972210000000     0.621460000000     0.0128634  
C100     C      0.245320000000     0.947470000000     0.621370000000    -0.0654328  
C101     C      0.157070000000     0.955280000000     0.621110000000    -0.0200752  
C102     C      0.245940000000     0.044990000000     0.621460000000    -0.0658872  
C103     C      0.204620000000     0.972830000000     0.621340000000     0.0126787  
C104     C      0.204880000000     0.020250000000     0.621500000000     0.0136419  
C105     C      0.496500000000     0.453930000000     0.451950000000    -0.0202837  
C106     C      0.494730000000     0.536990000000     0.540400000000    -0.0203118  
C107     C      0.496650000000     0.453840000000     0.540380000000    -0.0202821  
C108     C      0.496200000000     0.471730000000     0.516620000000     0.0132595  
C109     C      0.495160000000     0.519140000000     0.516630000000     0.0132644  
C110     C      0.494660000000     0.544210000000     0.496190000000    -0.0655666  
C111     C      0.494920000000     0.537080000000     0.451970000000    -0.0202271  
C112     C      0.496710000000     0.446710000000     0.496160000000    -0.0656102  
C113     C      0.495220000000     0.519190000000     0.475730000000     0.0132194  
C114     C      0.496170000000     0.471770000000     0.475710000000     0.013273   
C115     C      0.495550000000     0.955040000000     0.451860000000    -0.0201629  
C116     C      0.496110000000     0.038070000000     0.540320000000    -0.0202305  
C117     C      0.494950000000     0.954910000000     0.540280000000    -0.0202027  
C118     C      0.495300000000     0.972820000000     0.516530000000     0.0129084  
C119     C      0.495860000000     0.020240000000     0.516550000000     0.013587   
C120     C      0.496110000000     0.045320000000     0.496100000000    -0.0657749  
C121     C      0.495980000000     0.038210000000     0.451880000000    -0.0202047  
C122     C      0.495170000000     0.947810000000     0.496070000000    -0.0653818  
C123     C      0.495870000000     0.020310000000     0.475640000000     0.0136154  
C124     C      0.495520000000     0.972880000000     0.475620000000     0.0128742  
C125     C      0.996150000000     0.453890000000     0.451910000000    -0.020568   
C126     C      0.995320000000     0.536960000000     0.540360000000    -0.0205512  
C127     C      0.996480000000     0.453800000000     0.540340000000    -0.0205645  
C128     C      0.996190000000     0.471690000000     0.516580000000     0.0132803  
C129     C      0.995640000000     0.519110000000     0.516600000000     0.0132918  
C130     C      0.995450000000     0.544180000000     0.496150000000    -0.0656713  
C131     C      0.995710000000     0.537060000000     0.451930000000    -0.0205565  
C132     C      0.996390000000     0.446670000000     0.496120000000    -0.0656315  
C133     C      0.995750000000     0.519150000000     0.475690000000     0.0132893  
C134     C      0.996100000000     0.471730000000     0.475670000000     0.0132833  
C135     C      0.657060000000     0.449250000000     0.370000000000    -0.0202683  
C136     C      0.833840000000     0.532270000000     0.372240000000    -0.0203933  
C137     C      0.834620000000     0.449230000000     0.369970000000    -0.0203735  
C138     C      0.786830000000     0.466720000000     0.370460000000     0.0125647  
C139     C      0.786650000000     0.514070000000     0.371760000000     0.0137247  
C140     C      0.745850000000     0.539030000000     0.372460000000    -0.0662984  
C141     C      0.657860000000     0.532280000000     0.372290000000    -0.0203759  
C142     C      0.745840000000     0.441660000000     0.369780000000    -0.0650244  
C143     C      0.705050000000     0.514080000000     0.371790000000     0.0137353  
C144     C      0.704860000000     0.466730000000     0.370480000000     0.0125314  
C145     C      0.333830000000     0.458900000000     0.372130000000    -0.0203952  
C146     C      0.157070000000     0.541980000000     0.369910000000    -0.0203446  
C147     C      0.157850000000     0.458940000000     0.372100000000    -0.0203746  
C148     C      0.205050000000     0.477130000000     0.371630000000     0.0137446  
C149     C      0.204870000000     0.524480000000     0.370370000000     0.0125493  
C150     C      0.245860000000     0.549540000000     0.369710000000    -0.0649878  
C151     C      0.334640000000     0.541940000000     0.369910000000    -0.0202783  
C152     C      0.245840000000     0.452160000000     0.372300000000    -0.06632    
C153     C      0.286840000000     0.524470000000     0.370380000000     0.0125225  
C154     C      0.286640000000     0.477110000000     0.371640000000     0.013762   
C155     C      0.996660000000     0.038030000000     0.540350000000    -0.0204554  
C156     C      0.994980000000     0.955030000000     0.451880000000    -0.0204414  
C157     C      0.996550000000     0.038180000000     0.451910000000    -0.0205483  
C158     C      0.996220000000     0.020280000000     0.475670000000     0.0136648  
C159     C      0.995270000000     0.972860000000     0.475650000000     0.012894   
C160     C      0.994700000000     0.947790000000     0.496090000000    -0.0654191  
C161     C      0.994740000000     0.954890000000     0.540310000000    -0.0204708  
C162     C      0.996750000000     0.045290000000     0.496130000000    -0.0658752  
C163     C      0.995190000000     0.972800000000     0.516560000000     0.0129036  
C164     C      0.996240000000     0.020210000000     0.516580000000     0.0136237  
C165     C      0.657070000000     0.950280000000     0.369880000000    -0.0202087  
C166     C      0.833830000000     0.033360000000     0.372120000000    -0.0203961  
C167     C      0.834630000000     0.950320000000     0.369870000000    -0.0202593  
C168     C      0.786840000000     0.967800000000     0.370350000000     0.0121828  
C169     C      0.786640000000     0.015150000000     0.371630000000     0.0141072  
C170     C      0.745840000000     0.040090000000     0.372310000000    -0.0664783  
C171     C      0.657850000000     0.033320000000     0.372120000000    -0.0203394  
C172     C      0.745860000000     0.942720000000     0.369670000000    -0.0648093  
C173     C      0.705040000000     0.015130000000     0.371630000000     0.0140852  
C174     C      0.704860000000     0.967780000000     0.370360000000     0.0121632  
C175     C      0.333840000000     0.959990000000     0.372120000000    -0.0203754  
C176     C      0.157060000000     0.043010000000     0.369920000000    -0.0204313  
C177     C      0.157860000000     0.959980000000     0.372170000000    -0.0203998  
C178     C      0.205050000000     0.978180000000     0.371680000000     0.0133483  
C179     C      0.204860000000     0.025530000000     0.370400000000     0.0129603  
C180     C      0.245840000000     0.050600000000     0.369710000000    -0.0652735  
C181     C      0.334620000000     0.043030000000     0.369890000000    -0.0205011  
C182     C      0.245850000000     0.953230000000     0.372340000000    -0.0660372  
C183     C      0.286830000000     0.025540000000     0.370380000000     0.0129834  
C184     C      0.286640000000     0.978190000000     0.371650000000     0.013331   
C185     C      0.463490000000     0.469650000000     0.790370000000    -0.0207223  
C186     C      0.520370000000     0.529010000000     0.702000000000    -0.0207806  
C187     C      0.471670000000     0.461550000000     0.702020000000    -0.0207907  
C188     C      0.480880000000     0.477080000000     0.725760000000     0.0137973  
C189     C      0.511340000000     0.513430000000     0.725740000000     0.013782   
C190     C      0.530030000000     0.530330000000     0.746160000000    -0.0657634  
C191     C      0.529140000000     0.520750000000     0.790330000000    -0.0207022  
C192     C      0.462320000000     0.460140000000     0.746200000000    -0.0657827  
C193     C      0.513850000000     0.511090000000     0.766600000000     0.0137672  
C194     C      0.478630000000     0.479330000000     0.766620000000     0.0137863  
C195     C      0.529060000000     0.970170000000     0.790210000000    -0.0206715  
C196     C      0.471520000000     0.029730000000     0.701970000000    -0.0206245  
C197     C      0.520250000000     0.962310000000     0.701870000000    -0.0206036  
C198     C      0.511230000000     0.977780000000     0.725630000000     0.0133892  
C199     C      0.480750000000     0.014110000000     0.725690000000     0.0141292  
C200     C      0.462190000000     0.030950000000     0.746150000000    -0.0659525  
C201     C      0.463370000000     0.021220000000     0.790310000000    -0.0206452  
C202     C      0.529940000000     0.960800000000     0.746030000000    -0.0655552  
C203     C      0.478520000000     0.011670000000     0.766550000000     0.0141172  
C204     C      0.513770000000     0.979940000000     0.766490000000     0.0134207  
C205     C      0.533070000000     0.833370000000     0.872000000000    -0.020357   
C206     C      0.450070000000     0.656580000000     0.869870000000    -0.0202074  
C207     C      0.533110000000     0.657390000000     0.872080000000    -0.0204448  
C208     C      0.514890000000     0.704580000000     0.871570000000     0.0137847  
C209     C      0.467540000000     0.704380000000     0.870310000000     0.0124826  
C210     C      0.442470000000     0.745360000000     0.869630000000    -0.064971   
C211     C      0.450030000000     0.834140000000     0.869810000000    -0.0202829  
C212     C      0.539850000000     0.745380000000     0.872210000000    -0.0663345  
C213     C      0.467520000000     0.786350000000     0.870280000000     0.0125242  
C214     C      0.514880000000     0.786170000000     0.871530000000     0.0137408  
C215     C      0.459740000000     0.157380000000     0.872260000000    -0.020326   
C216     C      0.542760000000     0.334150000000     0.870030000000    -0.0202788  
C217     C      0.459720000000     0.333360000000     0.872320000000    -0.0204289  
C218     C      0.477930000000     0.286170000000     0.871820000000     0.0137476  
C219     C      0.525280000000     0.286360000000     0.870510000000     0.0125367  
C220     C      0.550340000000     0.245370000000     0.869810000000    -0.0650171  
C221     C      0.542770000000     0.156590000000     0.869980000000    -0.0202812  
C222     C      0.452980000000     0.245370000000     0.872490000000    -0.0662467  
C223     C      0.525280000000     0.204390000000     0.870490000000     0.0125651  
C224     C      0.477940000000     0.204570000000     0.871790000000     0.013699   
C225     C      0.020100000000     0.529120000000     0.701970000000    -0.0207227  
C226     C      0.962710000000     0.470070000000     0.790300000000    -0.0206496  
C227     C      0.028400000000     0.521120000000     0.790300000000    -0.0207372  
C228     C      0.013220000000     0.511400000000     0.766570000000     0.0141933  
C229     C      0.977980000000     0.479680000000     0.766570000000     0.0133774  
C230     C      0.961770000000     0.460420000000     0.746140000000    -0.065501   
C231     C      0.971370000000     0.461690000000     0.701970000000    -0.0206021  
C232     C      0.029510000000     0.530570000000     0.746140000000    -0.0659781  
C233     C      0.980440000000     0.477290000000     0.725710000000     0.0133603  
C234     C      0.010920000000     0.513620000000     0.725710000000     0.0141713  
C235     C      0.962630000000     0.021340000000     0.790300000000    -0.0205953  
C236     C      0.019900000000     0.962340000000     0.701930000000    -0.0205684  
C237     C      0.971200000000     0.029790000000     0.701970000000    -0.0206757  
C238     C      0.980290000000     0.014160000000     0.725700000000     0.0138196  
C239     C      0.010750000000     0.977810000000     0.725680000000     0.0137368  
C240     C      0.029350000000     0.960830000000     0.746100000000    -0.0657426  
C241     C      0.028280000000     0.970250000000     0.790270000000    -0.0205805  
C242     C      0.961640000000     0.031020000000     0.746130000000    -0.065771   
C243     C      0.013080000000     0.979980000000     0.766540000000     0.0137677  
C244     C      0.977860000000     0.011740000000     0.766550000000     0.0137594  
C245     C      0.949150000000     0.834500000000     0.869890000000    -0.0202403  
C246     C      0.032180000000     0.657720000000     0.872110000000    -0.0203458  
C247     C      0.949140000000     0.656940000000     0.869890000000    -0.0202625  
C248     C      0.966630000000     0.704730000000     0.870360000000     0.0121762  
C249     C      0.013980000000     0.704920000000     0.871630000000     0.014088   
C250     C      0.038940000000     0.745710000000     0.872300000000    -0.0664736  
C251     C      0.032190000000     0.833700000000     0.872130000000    -0.0203532  
C252     C      0.941570000000     0.745720000000     0.869690000000    -0.0647859  
C253     C      0.013990000000     0.786510000000     0.871640000000     0.0140912  
C254     C      0.966630000000     0.786700000000     0.870360000000     0.0121721  
C255     C      0.041890000000     0.334490000000     0.869970000000    -0.0204866  
C256     C      0.958810000000     0.157730000000     0.872180000000    -0.0203915  
C257     C      0.041840000000     0.156930000000     0.869920000000    -0.0205137  
C258     C      0.024370000000     0.204720000000     0.870420000000     0.0129741  
C259     C      0.977020000000     0.204920000000     0.871700000000     0.0133609  
C260     C      0.952070000000     0.245720000000     0.872390000000    -0.0660843  
C261     C      0.958850000000     0.333710000000     0.872210000000    -0.02048    
C262     C      0.049440000000     0.245700000000     0.869740000000    -0.0652342  
C263     C      0.977040000000     0.286520000000     0.871720000000     0.013379   
C264     C      0.024390000000     0.286690000000     0.870440000000     0.0129534  
C265     C      0.521580000000     0.528480000000     0.290370000000    -0.0206814  
C266     C      0.462620000000     0.471280000000     0.201990000000    -0.0207434  
C267     C      0.530070000000     0.519980000000     0.202030000000    -0.0207805  
C268     C      0.514440000000     0.510860000000     0.225760000000     0.0137653  
C269     C      0.478100000000     0.480400000000     0.225730000000     0.0137975  
C270     C      0.461100000000     0.461780000000     0.246150000000    -0.0657863  
C271     C      0.470490000000     0.462830000000     0.290320000000    -0.0207337  
C272     C      0.531290000000     0.529490000000     0.246210000000    -0.0657556  
C273     C      0.480240000000     0.478030000000     0.266590000000     0.0138042  
C274     C      0.512000000000     0.513260000000     0.266620000000     0.0137592  
C275     C      0.454930000000     0.496800000000     0.040390000000    -0.0202444  
C276     C      0.538060000000     0.494820000000     0.951960000000    -0.0203814  
C277     C      0.454900000000     0.496390000000     0.951960000000    -0.0203212  
C278     C      0.472780000000     0.496160000000     0.975720000000     0.0132661  
C279     C      0.520200000000     0.495210000000     0.975720000000     0.0132835  
C280     C      0.545240000000     0.494710000000     0.996170000000    -0.065562   
C281     C      0.538070000000     0.494880000000     0.040390000000    -0.0202347  
C282     C      0.447750000000     0.496760000000     0.996170000000    -0.0655544  
C283     C      0.520200000000     0.495270000000     0.016630000000     0.0132329  
C284     C      0.472790000000     0.496320000000     0.016630000000     0.0132202  
C285     C      0.530010000000     0.020430000000     0.201920000000    -0.0207124  
C286     C      0.470370000000     0.963710000000     0.290270000000    -0.0206388  
C287     C      0.521420000000     0.029400000000     0.290240000000    -0.0207214  
C288     C      0.511860000000     0.014060000000     0.266510000000     0.0141542  
C289     C      0.480130000000     0.978820000000     0.266520000000     0.0134071  
C290     C      0.461020000000     0.962450000000     0.246100000000    -0.0655251  
C291     C      0.462580000000     0.971700000000     0.201920000000    -0.0205799  
C292     C      0.531170000000     0.030200000000     0.246080000000    -0.0659829  
C293     C      0.478030000000     0.980960000000     0.225660000000     0.0133629  
C294     C      0.514350000000     0.011450000000     0.225660000000     0.0141719  
C295     C      0.454960000000     0.996050000000     0.040300000000    -0.0204695  
C296     C      0.538090000000     0.994980000000     0.951870000000    -0.0205917  
C297     C      0.454930000000     0.995410000000     0.951880000000    -0.0205379  
C298     C      0.472810000000     0.995410000000     0.975630000000     0.0132722  
C299     C      0.520240000000     0.995060000000     0.975630000000     0.0133133  
C300     C      0.545290000000     0.994840000000     0.996080000000    -0.0656681  
C301     C      0.538110000000     0.994890000000     0.040300000000    -0.0205646  
C302     C      0.447770000000     0.995770000000     0.996090000000    -0.0656457  
C303     C      0.520240000000     0.995090000000     0.016540000000     0.0132806  
C304     C      0.472820000000     0.995650000000     0.016540000000     0.0132578  
C305     C      0.454280000000     0.657600000000     0.121660000000    -0.0204622  
C306     C      0.538710000000     0.833940000000     0.121640000000    -0.0203837  
C307     C      0.455550000000     0.834310000000     0.121200000000    -0.0201478  
C308     C      0.473100000000     0.786770000000     0.121420000000     0.013069   
C309     C      0.520530000000     0.786510000000     0.121550000000     0.0132221  
C310     C      0.545260000000     0.745450000000     0.121490000000    -0.0656217  
C311     C      0.537450000000     0.657210000000     0.121230000000    -0.020193   
C312     C      0.447740000000     0.746070000000     0.121480000000    -0.0656883  
C313     C      0.519900000000     0.704750000000     0.121440000000     0.0130453  
C314     C      0.472480000000     0.705010000000     0.121550000000     0.0132891  
C315     C      0.454200000000     0.157590000000     0.121400000000    -0.0203841  
C316     C      0.538620000000     0.333930000000     0.121530000000    -0.0203148  
C317     C      0.455460000000     0.334320000000     0.121060000000    -0.0201786  
C318     C      0.473010000000     0.286780000000     0.121240000000     0.0130631  
C319     C      0.520430000000     0.286510000000     0.121380000000     0.0132427  
C320     C      0.545170000000     0.245460000000     0.121310000000    -0.0656672  
C321     C      0.537370000000     0.157220000000     0.121000000000    -0.020223   
C322     C      0.447650000000     0.246070000000     0.121260000000    -0.0656571  
C323     C      0.519810000000     0.204750000000     0.121210000000     0.0130834  
C324     C      0.472390000000     0.205010000000     0.121310000000     0.0132507  
C325     C      0.962040000000     0.520480000000     0.201990000000    -0.0205591  
C326     C      0.021270000000     0.462950000000     0.290280000000    -0.0207261  
C327     C      0.970220000000     0.528640000000     0.290330000000    -0.0206771  
C328     C      0.979880000000     0.513500000000     0.266580000000     0.0134022  
C329     C      0.011610000000     0.478250000000     0.266550000000     0.014179   
C330     C      0.030820000000     0.462070000000     0.246110000000    -0.0660108  
C331     C      0.029470000000     0.471750000000     0.201950000000    -0.0207875  
C332     C      0.960670000000     0.529820000000     0.246170000000    -0.0655111  
C333     C      0.013910000000     0.480780000000     0.225700000000     0.0142052  
C334     C      0.977580000000     0.511270000000     0.225720000000     0.0133414  
C335     C      0.037180000000     0.496850000000     0.040340000000    -0.0202823  
C336     C      0.953950000000     0.495680000000     0.951930000000    -0.0202212  
C337     C      0.037120000000     0.496110000000     0.951910000000    -0.0202286  
C338     C      0.019260000000     0.496180000000     0.975670000000     0.0135994  
C339     C      0.971840000000     0.495830000000     0.975680000000     0.0128845  
C340     C      0.946810000000     0.495630000000     0.996140000000    -0.0653031  
C341     C      0.954020000000     0.495690000000     0.040360000000    -0.0201175  
C342     C      0.044320000000     0.496560000000     0.996130000000    -0.0657961  
C343     C      0.971870000000     0.495910000000     0.016590000000     0.0128081  
C344     C      0.019290000000     0.496460000000     0.016580000000     0.013664   
C345     C      0.021460000000     0.963850000000     0.290290000000    -0.0206619  
C346     C      0.962070000000     0.020830000000     0.201950000000    -0.0205794  
C347     C      0.029520000000     0.972140000000     0.201950000000    -0.0205442  
C348     C      0.014010000000     0.981320000000     0.225690000000     0.0137576  
C349     C      0.977660000000     0.011780000000     0.225690000000     0.0137768  
C350     C      0.960770000000     0.030450000000     0.246110000000    -0.0657634  
C351     C      0.970360000000     0.029510000000     0.290280000000    -0.020643   
C352     C      0.030960000000     0.962740000000     0.246120000000    -0.0657535  
C353     C      0.980010000000     0.014250000000     0.266540000000     0.013777   
C354     C      0.011770000000     0.979030000000     0.266550000000     0.0137813  
C355     C      0.954040000000     0.995080000000     0.040340000000    -0.0204325  
C356     C      0.037120000000     0.996530000000     0.951890000000    -0.02048    
C357     C      0.953970000000     0.994950000000     0.951910000000    -0.0205259  
C358     C      0.971860000000     0.995330000000     0.975660000000     0.0129416  
C359     C      0.019270000000     0.996290000000     0.975650000000     0.0136367  
C360     C      0.044330000000     0.996910000000     0.996100000000    -0.0658736  
C361     C      0.037190000000     0.997000000000     0.040320000000    -0.0205769  
C362     C      0.946830000000     0.994860000000     0.996120000000    -0.0654526  
C363     C      0.019300000000     0.996480000000     0.016560000000     0.0136642  
C364     C      0.971890000000     0.995430000000     0.016570000000     0.0128866  
C365     C      0.954770000000     0.657730000000     0.121190000000    -0.0200546  
C366     C      0.036680000000     0.834830000000     0.121170000000    -0.0201557  
C367     C      0.953520000000     0.834450000000     0.121640000000    -0.020254   
C368     C      0.971710000000     0.787020000000     0.121530000000     0.0128521  
C369     C      0.019130000000     0.787280000000     0.121380000000     0.0134323  
C370     C      0.044490000000     0.746580000000     0.121430000000    -0.0658704  
C371     C      0.037930000000     0.658100000000     0.121590000000    -0.0203299  
C372     C      0.946970000000     0.745970000000     0.121470000000    -0.0654357  
C373     C      0.019750000000     0.705520000000     0.121500000000     0.0136089  
C374     C      0.972330000000     0.705260000000     0.121400000000     0.0126738  
C375     C      0.954700000000     0.157720000000     0.121030000000    -0.0200906  
C376     C      0.036590000000     0.334820000000     0.121080000000    -0.0201103  
C377     C      0.953430000000     0.334450000000     0.121510000000    -0.0202384  
C378     C      0.971620000000     0.287020000000     0.121390000000     0.0128495  
C379     C      0.019040000000     0.287280000000     0.121260000000     0.0134219  
C380     C      0.044400000000     0.246580000000     0.121310000000    -0.0658391  
C381     C      0.037860000000     0.158110000000     0.121470000000    -0.0203555  
C382     C      0.946880000000     0.245960000000     0.121310000000    -0.0654315  
C383     C      0.019670000000     0.205530000000     0.121360000000     0.0136275  
C384     C      0.972250000000     0.205260000000     0.121240000000     0.0126901  
H1       H      0.651010000000     0.432470000000     0.637140000000     0.0436954  
H2       H      0.650260000000     0.557780000000     0.636420000000     0.0432083  
H3       H      0.745230000000     0.581190000000     0.621330000000     0.0440308  
H4       H      0.746400000000     0.409610000000     0.621350000000     0.0440429  
H5       H      0.841370000000     0.433030000000     0.636420000000     0.0432112  
H6       H      0.840660000000     0.559120000000     0.606190000000     0.0432394  
H7       H      0.650970000000     0.431660000000     0.606220000000     0.0432749  
H8       H      0.650530000000     0.557040000000     0.605500000000     0.0440711  
H9       H      0.840640000000     0.558340000000     0.637120000000     0.0436463  
H10      H      0.841090000000     0.433740000000     0.605500000000     0.0440663  
H11      H      0.340630000000     0.558210000000     0.637280000000     0.0436819  
H12      H      0.341380000000     0.432920000000     0.636530000000     0.0431954  
H13      H      0.246400000000     0.409520000000     0.621420000000     0.0440539  
H14      H      0.245240000000     0.581110000000     0.621470000000     0.0440223  
H15      H      0.150240000000     0.557680000000     0.636510000000     0.0432259  
H16      H      0.150990000000     0.431610000000     0.606270000000     0.0432993  
H17      H      0.340660000000     0.559060000000     0.606360000000     0.0432818  
H18      H      0.341100000000     0.433660000000     0.605610000000     0.0440627  
H19      H      0.150960000000     0.432380000000     0.637200000000     0.0436988  
H20      H      0.150580000000     0.556990000000     0.605590000000     0.0440877  
H21      H      0.840490000000     0.932620000000     0.606140000000     0.043209   
H22      H      0.840920000000     0.058000000000     0.605490000000     0.04409    
H23      H      0.746210000000     0.082110000000     0.621320000000     0.0441035  
H24      H      0.745050000000     0.910530000000     0.621230000000     0.0439662  
H25      H      0.650370000000     0.934700000000     0.605380000000     0.0440361  
H26      H      0.650800000000     0.059210000000     0.637080000000     0.0437286  
H27      H      0.840430000000     0.933360000000     0.637070000000     0.0436103  
H28      H      0.841170000000     0.058670000000     0.636410000000     0.0432306  
H29      H      0.650780000000     0.060070000000     0.606160000000     0.0433193  
H30      H      0.650070000000     0.933900000000     0.636300000000     0.0431814  
H31      H      0.341190000000     0.058550000000     0.636530000000     0.0432512  
H32      H      0.340460000000     0.933250000000     0.637130000000     0.0436363  
H33      H      0.245050000000     0.910440000000     0.621320000000     0.0439835  
H34      H      0.246210000000     0.082020000000     0.621470000000     0.0441189  
H35      H      0.150800000000     0.059100000000     0.637240000000     0.0437556  
H36      H      0.150360000000     0.934630000000     0.605490000000     0.0440471  
H37      H      0.340890000000     0.057950000000     0.605610000000     0.0441192  
H38      H      0.340470000000     0.932560000000     0.606210000000     0.0432601  
H39      H      0.150050000000     0.933800000000     0.636410000000     0.0431844  
H40      H      0.150800000000     0.060020000000     0.606310000000     0.0433469  
H41      H      0.528040000000     0.433470000000     0.543750000000     0.04371    
H42      H      0.525120000000     0.558800000000     0.543790000000     0.0435805  
H43      H      0.493890000000     0.581240000000     0.496200000000     0.0440535  
H44      H      0.497500000000     0.409690000000     0.496150000000     0.0440815  
H45      H      0.527790000000     0.433410000000     0.448560000000     0.0436639  
H46      H      0.463630000000     0.557600000000     0.448580000000     0.0436518  
H47      H      0.466250000000     0.432030000000     0.543770000000     0.0435703  
H48      H      0.463330000000     0.557340000000     0.543780000000     0.0437099  
H49      H      0.525440000000     0.558750000000     0.448610000000     0.0435948  
H50      H      0.465990000000     0.432270000000     0.448560000000     0.0435988  
H51      H      0.525520000000     0.933350000000     0.543680000000     0.0435153  
H52      H      0.527320000000     0.058710000000     0.543710000000     0.0437679  
H53      H      0.496460000000     0.082350000000     0.496120000000     0.0441268  
H54      H      0.494830000000     0.910780000000     0.496050000000     0.0440066  
H55      H      0.526390000000     0.933820000000     0.448510000000     0.0437301  
H56      H      0.465170000000     0.059450000000     0.448500000000     0.0437882  
H57      H      0.463720000000     0.934280000000     0.543620000000     0.0437039  
H58      H      0.465510000000     0.059600000000     0.543710000000     0.0435486  
H59      H      0.526990000000     0.059170000000     0.448510000000     0.0435013  
H60      H      0.464570000000     0.934080000000     0.448430000000     0.0434647  
H61      H      0.027700000000     0.433170000000     0.543710000000     0.0439735  
H62      H      0.025900000000     0.558500000000     0.543760000000     0.0437719  
H63      H      0.995100000000     0.581210000000     0.496160000000     0.044041   
H64      H      0.996740000000     0.409630000000     0.496110000000     0.044022   
H65      H      0.027140000000     0.432940000000     0.448500000000     0.0437321  
H66      H      0.964720000000     0.558020000000     0.448540000000     0.0435383  
H67      H      0.965890000000     0.432250000000     0.543730000000     0.0435738  
H68      H      0.964100000000     0.557600000000     0.543720000000     0.0437755  
H69      H      0.026540000000     0.558290000000     0.448570000000     0.0440076  
H70      H      0.965330000000     0.432660000000     0.448530000000     0.0438176  
H71      H      0.841580000000     0.429940000000     0.353950000000     0.0434262  
H72      H      0.840340000000     0.555100000000     0.357380000000     0.0435442  
H73      H      0.745860000000     0.576010000000     0.373470000000     0.0440321  
H74      H      0.745840000000     0.404690000000     0.368760000000     0.0440533  
H75      H      0.650090000000     0.429960000000     0.353980000000     0.0434175  
H76      H      0.651320000000     0.551710000000     0.388310000000     0.0440239  
H77      H      0.841630000000     0.426570000000     0.384830000000     0.0433306  
H78      H      0.840410000000     0.551720000000     0.388250000000     0.0440181  
H79      H      0.651330000000     0.555130000000     0.357430000000     0.0435206  
H80      H      0.650070000000     0.426580000000     0.384860000000     0.0432976  
H81      H      0.151300000000     0.439420000000     0.388100000000     0.0440515  
H82      H      0.150090000000     0.564590000000     0.384790000000     0.0433691  
H83      H      0.245870000000     0.586520000000     0.368730000000     0.0440497  
H84      H      0.245830000000     0.415180000000     0.373280000000     0.0440593  
H85      H      0.340360000000     0.439410000000     0.388140000000     0.0440439  
H86      H      0.341630000000     0.561280000000     0.353910000000     0.0434227  
H87      H      0.151320000000     0.436170000000     0.357220000000     0.043549   
H88      H      0.150100000000     0.561340000000     0.353920000000     0.0434371  
H89      H      0.341620000000     0.564570000000     0.384790000000     0.0433053  
H90      H      0.340370000000     0.436110000000     0.357260000000     0.04353    
H91      H      0.027840000000     0.058700000000     0.448540000000     0.0439345  
H92      H      0.025490000000     0.933370000000     0.448510000000     0.0438043  
H93      H      0.993920000000     0.910760000000     0.496080000000     0.0439614  
H94      H      0.997530000000     0.082310000000     0.496150000000     0.0441103  
H95      H      0.028050000000     0.058390000000     0.543740000000     0.0439508  
H96      H      0.963340000000     0.934520000000     0.543670000000     0.0437078  
H97      H      0.966040000000     0.059850000000     0.448540000000     0.043676   
H98      H      0.963690000000     0.934520000000     0.448480000000     0.0436738  
H99      H      0.025130000000     0.933070000000     0.543690000000     0.0437669  
H100     H      0.966260000000     0.059840000000     0.543740000000     0.0436211  
H101     H      0.841610000000     0.931020000000     0.353860000000     0.0433932  
H102     H      0.840350000000     0.056180000000     0.357260000000     0.0435483  
H103     H      0.745830000000     0.077080000000     0.373300000000     0.044077   
H104     H      0.745860000000     0.905750000000     0.368670000000     0.0439925  
H105     H      0.650090000000     0.930950000000     0.353880000000     0.0433585  
H106     H      0.651300000000     0.052800000000     0.388130000000     0.0440602  
H107     H      0.841630000000     0.927660000000     0.384730000000     0.0432845  
H108     H      0.840370000000     0.052820000000     0.388130000000     0.0440855  
H109     H      0.651320000000     0.056120000000     0.357250000000     0.0435574  
H110     H      0.650090000000     0.927640000000     0.384760000000     0.0432882  
H111     H      0.151320000000     0.940510000000     0.388190000000     0.0440282  
H112     H      0.150080000000     0.065660000000     0.384800000000     0.0433856  
H113     H      0.245840000000     0.087570000000     0.368710000000     0.0441454  
H114     H      0.245850000000     0.916240000000     0.373330000000     0.0439633  
H115     H      0.340400000000     0.940500000000     0.388130000000     0.0439883  
H116     H      0.341580000000     0.062350000000     0.353880000000     0.0434883  
H117     H      0.151320000000     0.937150000000     0.357310000000     0.0435209  
H118     H      0.150080000000     0.062330000000     0.353920000000     0.0435193  
H119     H      0.341630000000     0.065670000000     0.384760000000     0.0433997  
H120     H      0.340340000000     0.937190000000     0.357250000000     0.043521   
H121     H      0.434440000000     0.461490000000     0.698160000000     0.0406208  
H122     H      0.506570000000     0.563980000000     0.699150000000     0.0457345  
H123     H      0.555730000000     0.556990000000     0.746140000000     0.0444093  
H124     H      0.436610000000     0.433490000000     0.746210000000     0.0444188  
H125     H      0.428050000000     0.482160000000     0.793260000000     0.0457401  
H126     H      0.564590000000     0.508230000000     0.793170000000     0.0457146  
H127     H      0.485450000000     0.426590000000     0.699130000000     0.0457445  
H128     H      0.557570000000     0.529090000000     0.698070000000     0.0406108  
H129     H      0.527890000000     0.557950000000     0.794230000000     0.0406057  
H130     H      0.464780000000     0.432450000000     0.794260000000     0.0406097  
H131     H      0.506470000000     0.927340000000     0.698990000000     0.0456775  
H132     H      0.434280000000     0.029800000000     0.698120000000     0.0406179  
H133     H      0.436460000000     0.057580000000     0.746200000000     0.0444766  
H134     H      0.555650000000     0.934150000000     0.745980000000     0.0443403  
H135     H      0.527840000000     0.932960000000     0.794060000000     0.0405851  
H136     H      0.464630000000     0.058410000000     0.794240000000     0.0406209  
H137     H      0.557450000000     0.962260000000     0.697930000000     0.0405303  
H138     H      0.485270000000     0.064720000000     0.699120000000     0.0457165  
H139     H      0.427940000000     0.008680000000     0.793190000000     0.045782   
H140     H      0.564500000000     0.982710000000     0.793060000000     0.0456703  
H141     H      0.552600000000     0.650890000000     0.888090000000     0.0440629  
H142     H      0.427430000000     0.649620000000     0.884750000000     0.0432883  
H143     H      0.405490000000     0.745350000000     0.868650000000     0.0440324  
H144     H      0.576830000000     0.745390000000     0.873190000000     0.0440477  
H145     H      0.552600000000     0.839920000000     0.887990000000     0.044023   
H146     H      0.430670000000     0.841110000000     0.853810000000     0.0433717  
H147     H      0.555900000000     0.650830000000     0.857210000000     0.043523   
H148     H      0.430730000000     0.649560000000     0.853870000000     0.0433977  
H149     H      0.427410000000     0.841140000000     0.884690000000     0.0433208  
H150     H      0.555830000000     0.839890000000     0.857110000000     0.0435156  
H151     H      0.440300000000     0.339900000000     0.888350000000     0.0440413  
H152     H      0.565430000000     0.341150000000     0.884890000000     0.0433158  
H153     H      0.587310000000     0.245380000000     0.868790000000     0.0440652  
H154     H      0.415990000000     0.245360000000     0.873510000000     0.0440198  
H155     H      0.440300000000     0.150800000000     0.888280000000     0.0440289  
H156     H      0.562070000000     0.149650000000     0.853970000000     0.0434289  
H157     H      0.436870000000     0.339880000000     0.857470000000     0.0435484  
H158     H      0.562050000000     0.341130000000     0.854010000000     0.0434298  
H159     H      0.565440000000     0.149570000000     0.884850000000     0.0433347  
H160     H      0.436890000000     0.150890000000     0.857400000000     0.0435308  
H161     H      0.027150000000     0.558330000000     0.794180000000     0.0406641  
H162     H      0.927270000000     0.482620000000     0.793150000000     0.0456909  
H163     H      0.936040000000     0.433780000000     0.746140000000     0.0443242  
H164     H      0.055240000000     0.557210000000     0.746130000000     0.0444712  
H165     H      0.006340000000     0.564090000000     0.699080000000     0.0458127  
H166     H      0.985150000000     0.426710000000     0.699130000000     0.0456479  
H167     H      0.063830000000     0.508590000000     0.793200000000     0.0457719  
H168     H      0.963940000000     0.432880000000     0.794220000000     0.0405613  
H169     H      0.934160000000     0.461620000000     0.698060000000     0.0405538  
H170     H      0.057330000000     0.529160000000     0.698090000000     0.0406378  
H171     H      0.984990000000     0.064770000000     0.699130000000     0.045701   
H172     H      0.057120000000     0.962280000000     0.698050000000     0.0405821  
H173     H      0.055060000000     0.934180000000     0.746080000000     0.0444075  
H174     H      0.935940000000     0.057680000000     0.746150000000     0.0444193  
H175     H      0.963890000000     0.058530000000     0.794220000000     0.0405908  
H176     H      0.027010000000     0.933040000000     0.794140000000     0.0406188  
H177     H      0.933990000000     0.029870000000     0.698060000000     0.0406362  
H178     H      0.006120000000     0.927380000000     0.699030000000     0.0457565  
H179     H      0.063730000000     0.982750000000     0.793160000000     0.0456944  
H180     H      0.927190000000     0.008810000000     0.793150000000     0.0457396  
H181     H      0.929810000000     0.649960000000     0.853890000000     0.0433785  
H182     H      0.054970000000     0.651200000000     0.857240000000     0.04356    
H183     H      0.075930000000     0.745710000000     0.873300000000     0.0440745  
H184     H      0.904590000000     0.745720000000     0.868690000000     0.0439716  
H185     H      0.929840000000     0.841480000000     0.853880000000     0.0433879  
H186     H      0.051660000000     0.840240000000     0.888140000000     0.0440688  
H187     H      0.926510000000     0.649950000000     0.884760000000     0.0433133  
H188     H      0.051670000000     0.651180000000     0.888120000000     0.0440546  
H189     H      0.055000000000     0.840240000000     0.857260000000     0.0435459  
H190     H      0.926510000000     0.841490000000     0.884760000000     0.043282   
H191     H      0.064500000000     0.149910000000     0.884780000000     0.0434167  
H192     H      0.939350000000     0.151170000000     0.888200000000     0.0440278  
H193     H      0.915090000000     0.245730000000     0.873390000000     0.0439907  
H194     H      0.086420000000     0.245700000000     0.868740000000     0.044124   
H195     H      0.064530000000     0.341470000000     0.884840000000     0.0433963  
H196     H      0.936030000000     0.340250000000     0.857350000000     0.0435525  
H197     H      0.061140000000     0.149970000000     0.853910000000     0.0435406  
H198     H      0.935980000000     0.151220000000     0.857320000000     0.0435194  
H199     H      0.939380000000     0.340260000000     0.888220000000     0.044023   
H200     H      0.061220000000     0.341470000000     0.853970000000     0.0434988  
H201     H      0.565040000000     0.506180000000     0.199190000000     0.0457318  
H202     H      0.462560000000     0.434060000000     0.198090000000     0.0406082  
H203     H      0.434440000000     0.436080000000     0.246130000000     0.0444201  
H204     H      0.557940000000     0.555200000000     0.246230000000     0.0444077  
H205     H      0.558770000000     0.527210000000     0.294300000000     0.0406034  
H206     H      0.433270000000     0.464100000000     0.294190000000     0.0406075  
H207     H      0.530160000000     0.557190000000     0.198140000000     0.0406152  
H208     H      0.427650000000     0.485050000000     0.199090000000     0.0457435  
H209     H      0.482990000000     0.427380000000     0.293210000000     0.0457356  
H210     H      0.509060000000     0.563920000000     0.293220000000     0.0457157  
H211     H      0.434390000000     0.527670000000     0.948550000000     0.0436928  
H212     H      0.559720000000     0.525320000000     0.948550000000     0.0436419  
H213     H      0.582270000000     0.493930000000     0.996170000000     0.0440602  
H214     H      0.410720000000     0.497540000000     0.996180000000     0.0440566  
H215     H      0.434570000000     0.528210000000     0.043750000000     0.0436887  
H216     H      0.558440000000     0.463490000000     0.043780000000     0.0436937  
H217     H      0.433240000000     0.465870000000     0.948610000000     0.0436336  
H218     H      0.558570000000     0.463520000000     0.948590000000     0.043705   
H219     H      0.559880000000     0.525290000000     0.043770000000     0.0435449  
H220     H      0.433110000000     0.466420000000     0.043790000000     0.0435787  
H221     H      0.508860000000     0.064840000000     0.293060000000     0.0457315  
H222     H      0.433160000000     0.964980000000     0.294120000000     0.0405577  
H223     H      0.434380000000     0.936720000000     0.246100000000     0.0443235  
H224     H      0.557810000000     0.055920000000     0.246080000000     0.0444872  
H225     H      0.530080000000     0.057630000000     0.197970000000     0.0406264  
H226     H      0.462550000000     0.934460000000     0.198080000000     0.0405539  
H227     H      0.558610000000     0.028190000000     0.294180000000     0.040657   
H228     H      0.482890000000     0.928280000000     0.293190000000     0.0457203  
H229     H      0.427610000000     0.985440000000     0.199000000000     0.0456601  
H230     H      0.564990000000     0.006640000000     0.199110000000     0.0457858  
H231     H      0.433950000000     0.026380000000     0.948470000000     0.0437391  
H232     H      0.559330000000     0.025780000000     0.948480000000     0.0440226  
H233     H      0.582320000000     0.994500000000     0.996080000000     0.0440466  
H234     H      0.410740000000     0.996130000000     0.996090000000     0.0440383  
H235     H      0.434310000000     0.027280000000     0.043630000000     0.0439533  
H236     H      0.558740000000     0.963680000000     0.043700000000     0.0437744  
H237     H      0.433710000000     0.964570000000     0.948530000000     0.0437988  
H238     H      0.559030000000     0.963970000000     0.948480000000     0.0435246  
H239     H      0.559660000000     0.025480000000     0.043670000000     0.0437753  
H240     H      0.433410000000     0.965470000000     0.043730000000     0.0435535  
H241     H      0.434120000000     0.841350000000     0.136520000000     0.0431863  
H242     H      0.559410000000     0.840620000000     0.137240000000     0.0436719  
H243     H      0.582300000000     0.745180000000     0.121470000000     0.0440105  
H244     H      0.410710000000     0.746350000000     0.121460000000     0.0440447  
H245     H      0.433570000000     0.650940000000     0.137260000000     0.0437062  
H246     H      0.558160000000     0.650490000000     0.105640000000     0.0440826  
H247     H      0.434840000000     0.841000000000     0.105600000000     0.0440582  
H248     H      0.560240000000     0.840590000000     0.106320000000     0.0432718  
H249     H      0.558860000000     0.650190000000     0.136560000000     0.0431938  
H250     H      0.432770000000     0.650930000000     0.106340000000     0.043313   
H251     H      0.434010000000     0.341290000000     0.136380000000     0.0432115  
H252     H      0.559310000000     0.340540000000     0.137150000000     0.043673   
H253     H      0.582200000000     0.245180000000     0.121310000000     0.0440488  
H254     H      0.410620000000     0.246340000000     0.121230000000     0.0440528  
H255     H      0.433450000000     0.150920000000     0.136990000000     0.0437105  
H256     H      0.558090000000     0.150520000000     0.105410000000     0.0440974  
H257     H      0.434780000000     0.341080000000     0.105460000000     0.0440633  
H258     H      0.560170000000     0.340640000000     0.106220000000     0.0432577  
H259     H      0.558780000000     0.150190000000     0.136330000000     0.0432392  
H260     H      0.432730000000     0.150930000000     0.106060000000     0.0433065  
H261     H      0.933020000000     0.527380000000     0.294230000000     0.0405887  
H262     H      0.008730000000     0.427510000000     0.293120000000     0.0457905  
H263     H      0.057460000000     0.436350000000     0.246080000000     0.0444956  
H264     H      0.934030000000     0.555550000000     0.246190000000     0.0443197  
H265     H      0.927060000000     0.506730000000     0.199110000000     0.0456754  
H266     H      0.064440000000     0.485540000000     0.199090000000     0.0457727  
H267     H      0.982750000000     0.564060000000     0.293230000000     0.0456922  
H268     H      0.058470000000     0.464170000000     0.294170000000     0.0406398  
H269     H      0.029530000000     0.434550000000     0.198020000000     0.0406645  
H270     H      0.961980000000     0.557720000000     0.198130000000     0.0405195  
H271     H      0.058340000000     0.465270000000     0.948580000000     0.043805   
H272     H      0.933000000000     0.464670000000     0.948560000000     0.0434763  
H273     H      0.909770000000     0.495270000000     0.996150000000     0.0439789  
H274     H      0.081350000000     0.496910000000     0.996120000000     0.0441328  
H275     H      0.058740000000     0.466290000000     0.043760000000     0.043587   
H276     H      0.932490000000     0.526300000000     0.043730000000     0.0434694  
H277     H      0.058080000000     0.527080000000     0.948480000000     0.0435342  
H278     H      0.932720000000     0.526490000000     0.948530000000     0.043752   
H279     H      0.933370000000     0.464490000000     0.043750000000     0.0436874  
H280     H      0.057800000000     0.528090000000     0.043670000000     0.0437663  
H281     H      0.029590000000     0.934910000000     0.198080000000     0.040603   
H282     H      0.927090000000     0.007040000000     0.199100000000     0.0457542  
H283     H      0.934110000000     0.056150000000     0.246110000000     0.0444156  
H284     H      0.057610000000     0.937030000000     0.246130000000     0.0444123  
H285     H      0.008960000000     0.928410000000     0.293180000000     0.0457759  
H286     H      0.982890000000     0.064950000000     0.293130000000     0.0456976  
H287     H      0.064490000000     0.985910000000     0.199060000000     0.0456697  
H288     H      0.961990000000     0.058040000000     0.198030000000     0.0405796  
H289     H      0.933170000000     0.028250000000     0.294180000000     0.0406475  
H290     H      0.058660000000     0.965140000000     0.294180000000     0.0406059  
H291     H      0.932300000000     0.025450000000     0.948510000000     0.0438233  
H292     H      0.057650000000     0.027800000000     0.948480000000     0.0439227  
H293     H      0.081350000000     0.997690000000     0.996100000000     0.0441116  
H294     H      0.909810000000     0.994080000000     0.996130000000     0.0439902  
H295     H      0.932230000000     0.025490000000     0.043700000000     0.0437548  
H296     H      0.059010000000     0.966620000000     0.043730000000     0.0436523  
H297     H      0.933460000000     0.963650000000     0.948540000000     0.0436828  
H298     H      0.058780000000     0.966000000000     0.948530000000     0.0436606  
H299     H      0.057550000000     0.028410000000     0.043660000000     0.0439769  
H300     H      0.933680000000     0.963700000000     0.043750000000     0.0437087  
H301     H      0.932840000000     0.841100000000     0.137250000000     0.0436272  
H302     H      0.058130000000     0.841840000000     0.136480000000     0.043221   
H303     H      0.081520000000     0.746850000000     0.121390000000     0.0441001  
H304     H      0.909940000000     0.745700000000     0.121470000000     0.0439691  
H305     H      0.933370000000     0.650710000000     0.136520000000     0.0431598  
H306     H      0.059420000000     0.651430000000     0.106250000000     0.0432973  
H307     H      0.931970000000     0.841110000000     0.106330000000     0.0432387  
H308     H      0.057360000000     0.841540000000     0.105560000000     0.0440909  
H309     H      0.058670000000     0.651430000000     0.137180000000     0.0437103  
H310     H      0.934030000000     0.651020000000     0.105600000000     0.0440216  
H311     H      0.932720000000     0.341080000000     0.137120000000     0.0436233  
H312     H      0.058020000000     0.341810000000     0.136400000000     0.0432187  
H313     H      0.081440000000     0.246860000000     0.121290000000     0.0440897  
H314     H      0.909850000000     0.245690000000     0.121300000000     0.0439835  
H315     H      0.933270000000     0.150700000000     0.136350000000     0.0431999  
H316     H      0.059370000000     0.151440000000     0.106140000000     0.0433285  
H317     H      0.931910000000     0.341140000000     0.106190000000     0.0432306  
H318     H      0.057300000000     0.341560000000     0.105480000000     0.0440875  
H319     H      0.058590000000     0.151450000000     0.137060000000     0.0437542  
H320     H      0.934000000000     0.151000000000     0.105430000000     0.0440412  
N1       N      0.862210000000     0.496180000000     0.621270000000    -0.171601   
N2       N      0.629430000000     0.494610000000     0.621280000000    -0.171561   
N3       N      0.129430000000     0.494550000000     0.621340000000    -0.171522   
N4       N      0.362210000000     0.496090000000     0.621400000000    -0.17162    
N5       N      0.629230000000     0.997090000000     0.621190000000    -0.171684   
N6       N      0.862020000000     0.995540000000     0.621250000000    -0.171674   
N7       N      0.129230000000     0.997010000000     0.621320000000    -0.171648   
N8       N      0.362020000000     0.995460000000     0.621320000000    -0.171667   
N9       N      0.495730000000     0.495520000000     0.437930000000    -0.171524   
N10      N      0.495700000000     0.495400000000     0.554410000000    -0.171409   
N11      N      0.495800000000     0.996640000000     0.437850000000    -0.171476   
N12      N      0.495520000000     0.996460000000     0.554330000000    -0.171605   
N13      N      0.995930000000     0.495490000000     0.437890000000    -0.171447   
N14      N      0.995890000000     0.495370000000     0.554370000000    -0.171345   
N15      N      0.629420000000     0.491080000000     0.371140000000    -0.171438   
N16      N      0.862280000000     0.491070000000     0.371090000000    -0.171458   
N17      N      0.362280000000     0.500100000000     0.371030000000    -0.171468   
N18      N      0.129420000000     0.500150000000     0.371010000000    -0.171384   
N19      N      0.995690000000     0.996440000000     0.554350000000    -0.171445   
N20      N      0.995780000000     0.996620000000     0.437870000000    -0.171413   
N21      N      0.629410000000     0.992110000000     0.371010000000    -0.171558   
N22      N      0.862280000000     0.992160000000     0.371000000000    -0.171543   
N23      N      0.362270000000     0.001190000000     0.371000000000    -0.171141   
N24      N      0.129410000000     0.001180000000     0.371060000000    -0.171156   
N25      N      0.496350000000     0.495200000000     0.804330000000    -0.171541   
N26      N      0.495970000000     0.495300000000     0.688030000000    -0.171421   
N27      N      0.496250000000     0.995640000000     0.804240000000    -0.171607   
N28      N      0.495820000000     0.996060000000     0.687940000000    -0.171663   
N29      N      0.491860000000     0.861800000000     0.870910000000    -0.171465   
N30      N      0.491900000000     0.628940000000     0.871000000000    -0.171457   
N31      N      0.500940000000     0.128940000000     0.871110000000    -0.171461   
N32      N      0.500930000000     0.361800000000     0.871170000000    -0.17144    
N33      N      0.995760000000     0.495380000000     0.687990000000    -0.171542   
N34      N      0.995530000000     0.495630000000     0.804280000000    -0.171495   
N35      N      0.995450000000     0.995760000000     0.804260000000    -0.171553   
N36      N      0.995570000000     0.996100000000     0.687970000000    -0.171589   
N37      N      0.990990000000     0.862150000000     0.871010000000    -0.171529   
N38      N      0.990970000000     0.629280000000     0.871010000000    -0.17155    
N39      N      0.000060000000     0.362150000000     0.871090000000    -0.171169   
N40      N      0.000000000000     0.129280000000     0.871050000000    -0.171175   
N41      N      0.495990000000     0.495660000000     0.304330000000    -0.171548   
N42      N      0.496380000000     0.495630000000     0.188030000000    -0.171395   
N43      N      0.496500000000     0.495860000000     0.054410000000    -0.171419   
N44      N      0.496470000000     0.495560000000     0.937930000000    -0.17136    
N45      N      0.496350000000     0.995980000000     0.187940000000    -0.171646   
N46      N      0.495850000000     0.996610000000     0.304230000000    -0.171461   
N47      N      0.496530000000     0.995530000000     0.054330000000    -0.171474   
N48      N      0.496500000000     0.995180000000     0.937850000000    -0.171338   
N49      N      0.495720000000     0.629370000000     0.121400000000    -0.171606   
N50      N      0.497270000000     0.862160000000     0.121360000000    -0.171625   
N51      N      0.495640000000     0.129370000000     0.121160000000    -0.171576   
N52      N      0.497190000000     0.362150000000     0.121280000000    -0.171565   
N53      N      0.995750000000     0.496170000000     0.187990000000    -0.171516   
N54      N      0.995750000000     0.495750000000     0.304280000000    -0.17145    
N55      N      0.995610000000     0.496310000000     0.054370000000    -0.171501   
N56      N      0.995530000000     0.495840000000     0.937890000000    -0.171571   
N57      N      0.995920000000     0.996700000000     0.304260000000    -0.171528   
N58      N      0.995770000000     0.996440000000     0.187970000000    -0.171651   
N59      N      0.995620000000     0.996090000000     0.054350000000    -0.171389   
N60      N      0.995540000000     0.995710000000     0.937870000000    -0.171447   
N61      N      0.996490000000     0.629880000000     0.121340000000    -0.171671   
N62      N      0.994950000000     0.862670000000     0.121360000000    -0.171682   
N63      N      0.996430000000     0.129880000000     0.121210000000    -0.171635   
N64      N      0.994870000000     0.362660000000     0.121260000000    -0.171658   
Ni1      Ni     0.954890000000     0.996910000000     0.121220000000     1.00038    
Ni2      Ni     0.036500000000     0.995640000000     0.121200000000     1.00093    
Ni3      Ni     0.954870000000     0.496940000000     0.121240000000     1.00079    
Ni4      Ni     0.036490000000     0.495610000000     0.121220000000     1.00119    
Ni5      Ni     0.455650000000     0.995100000000     0.121170000000     1.00095    
Ni6      Ni     0.537270000000     0.996430000000     0.121190000000     1.00054    
Ni7      Ni     0.455650000000     0.495130000000     0.121260000000     1.00079    
Ni8      Ni     0.537260000000     0.496400000000     0.121280000000     1.00085    
Ni9      Ni     0.036250000000     0.993970000000     0.871020000000     1.00005    
Ni10     Ni     0.954730000000     0.997460000000     0.871030000000     0.999708   
Ni11     Ni     0.954760000000     0.493940000000     0.871040000000     1.00007    
Ni12     Ni     0.036280000000     0.497490000000     0.871040000000     1.0005     
Ni13     Ni     0.455630000000     0.997140000000     0.871020000000     1.00003    
Ni14     Ni     0.537150000000     0.993600000000     0.870970000000     1.00026    
Ni15     Ni     0.537170000000     0.497110000000     0.871070000000     1.00003    
Ni16     Ni     0.455660000000     0.493620000000     0.871090000000     1.00029    
Ni17     Ni     0.994100000000     0.037430000000     0.371030000000     1.00004    
Ni18     Ni     0.997590000000     0.955910000000     0.371020000000     0.999649   
Ni19     Ni     0.994080000000     0.536370000000     0.371060000000     1.00026    
Ni20     Ni     0.997620000000     0.454850000000     0.371020000000     0.999862   
Ni21     Ni     0.494070000000     0.955880000000     0.371000000000     1.00012    
Ni22     Ni     0.497610000000     0.037410000000     0.370990000000     1.00042    
Ni23     Ni     0.494100000000     0.454830000000     0.371070000000     1.00058    
Ni24     Ni     0.497590000000     0.536350000000     0.371090000000     1.00012    
Ni25     Ni     0.994990000000     0.037080000000     0.621230000000     1.00081    
Ni26     Ni     0.996260000000     0.955470000000     0.621180000000     1.00072    
Ni27     Ni     0.996480000000     0.536170000000     0.621230000000     1.0007     
Ni28     Ni     0.995150000000     0.454550000000     0.621230000000     1.00071    
Ni29     Ni     0.496300000000     0.955460000000     0.621150000000     1.00099    
Ni30     Ni     0.494960000000     0.037080000000     0.621210000000     1.00113    
Ni31     Ni     0.496450000000     0.536160000000     0.621280000000     1.00115    
Ni32     Ni     0.495180000000     0.454540000000     0.621260000000     1.00091    
O1       O      0.957750000000     0.999710000000     0.153980000000    -0.449574   
O2       O      0.957540000000     0.995070000000     0.088450000000    -0.449361   
O3       O      0.957120000000     0.931160000000     0.122090000000    -0.448385   
O4       O      0.958080000000     0.062120000000     0.120350000000    -0.450877   
O5       O      0.034270000000     0.061390000000     0.121990000000    -0.448122   
O6       O      0.033300000000     0.930420000000     0.120410000000    -0.45099    
O7       O      0.033780000000     0.997310000000     0.088430000000    -0.449293   
O8       O      0.033710000000     0.993000000000     0.153960000000    -0.449475   
O9       O      0.957730000000     0.499580000000     0.154000000000    -0.449505   
O10      O      0.957530000000     0.495260000000     0.088470000000    -0.449565   
O11      O      0.957060000000     0.431180000000     0.122040000000    -0.448287   
O12      O      0.958110000000     0.562150000000     0.120440000000    -0.451129   
O13      O      0.034300000000     0.561360000000     0.122060000000    -0.448285   
O14      O      0.033250000000     0.430400000000     0.120380000000    -0.450918   
O15      O      0.033760000000     0.497350000000     0.088450000000    -0.449366   
O16      O      0.033700000000     0.492890000000     0.153980000000    -0.449445   
O17      O      0.457840000000     0.060860000000     0.121930000000    -0.448373   
O18      O      0.458890000000     0.929880000000     0.120410000000    -0.451194   
O19      O      0.458430000000     0.992530000000     0.153930000000    -0.449626   
O20      O      0.458380000000     0.996700000000     0.088400000000    -0.449605   
O21      O      0.534620000000     0.994610000000     0.088420000000    -0.449524   
O22      O      0.534400000000     0.999220000000     0.153950000000    -0.449373   
O23      O      0.535070000000     0.930670000000     0.122070000000    -0.448481   
O24      O      0.534030000000     0.061640000000     0.120320000000    -0.450928   
O25      O      0.458840000000     0.429910000000     0.120400000000    -0.451088   
O26      O      0.457880000000     0.560880000000     0.122120000000    -0.448493   
O27      O      0.458370000000     0.496940000000     0.088490000000    -0.44952    
O28      O      0.458430000000     0.492350000000     0.154020000000    -0.449441   
O29      O      0.534410000000     0.499050000000     0.154040000000    -0.449484   
O30      O      0.534600000000     0.494700000000     0.088510000000    -0.449483   
O31      O      0.534060000000     0.561620000000     0.120470000000    -0.451211   
O32      O      0.535020000000     0.430640000000     0.122080000000    -0.448508   
O33      O      0.031000000000     0.928900000000     0.872060000000    -0.450999   
O34      O      0.036080000000     0.059790000000     0.869980000000    -0.447183   
O35      O      0.033640000000     0.996170000000     0.903780000000    -0.449405   
O36      O      0.033310000000     0.991010000000     0.838260000000    -0.448922   
O37      O      0.957640000000     0.000450000000     0.838280000000    -0.448998   
O38      O      0.957390000000     0.995230000000     0.903790000000    -0.449547   
O39      O      0.959990000000     0.062530000000     0.872080000000    -0.450954   
O40      O      0.954910000000     0.931640000000     0.869980000000    -0.447534   
O41      O      0.954910000000     0.559770000000     0.870020000000    -0.447609   
O42      O      0.960030000000     0.428890000000     0.872080000000    -0.451202   
O43      O      0.957390000000     0.496080000000     0.903810000000    -0.449293   
O44      O      0.957680000000     0.490990000000     0.838290000000    -0.4493     
O45      O      0.033360000000     0.500340000000     0.838290000000    -0.449336   
O46      O      0.033650000000     0.495450000000     0.903810000000    -0.449213   
O47      O      0.036130000000     0.431660000000     0.870060000000    -0.447315   
O48      O      0.031000000000     0.562550000000     0.872030000000    -0.451173   
O49      O      0.458490000000     0.000160000000     0.838260000000    -0.449059   
O50      O      0.458320000000     0.994950000000     0.903770000000    -0.449512   
O51      O      0.460910000000     0.062200000000     0.872080000000    -0.451075   
O52      O      0.455780000000     0.931320000000     0.869960000000    -0.447558   
O53      O      0.531880000000     0.928540000000     0.871930000000    -0.451265   
O54      O      0.537000000000     0.059430000000     0.870030000000    -0.447482   
O55      O      0.534580000000     0.995580000000     0.903740000000    -0.449368   
O56      O      0.534170000000     0.990810000000     0.838220000000    -0.449377   
O57      O      0.534220000000     0.500000000000     0.838320000000    -0.449381   
O58      O      0.534580000000     0.494990000000     0.903840000000    -0.449347   
O59      O      0.537000000000     0.431290000000     0.870080000000    -0.447558   
O60      O      0.531920000000     0.562190000000     0.872080000000    -0.451105   
O61      O      0.455830000000     0.559440000000     0.870010000000    -0.447551   
O62      O      0.460910000000     0.428560000000     0.872190000000    -0.451222   
O63      O      0.458320000000     0.495930000000     0.903850000000    -0.449426   
O64      O      0.458550000000     0.490560000000     0.838340000000    -0.449474   
O65      O      0.929030000000     0.032170000000     0.372060000000    -0.451026   
O66      O      0.059920000000     0.037260000000     0.370000000000    -0.447169   
O67      O      0.991150000000     0.034520000000     0.338270000000    -0.448973   
O68      O      0.996280000000     0.034780000000     0.403790000000    -0.449302   
O69      O      0.995340000000     0.958520000000     0.403780000000    -0.449476   
O70      O      0.000600000000     0.958850000000     0.338270000000    -0.448906   
O71      O      0.062660000000     0.961160000000     0.372080000000    -0.450843   
O72      O      0.931770000000     0.956090000000     0.369960000000    -0.447606   
O73      O      0.991130000000     0.533520000000     0.338310000000    -0.449366   
O74      O      0.996210000000     0.533680000000     0.403820000000    -0.449449   
O75      O      0.059900000000     0.536220000000     0.370040000000    -0.447481   
O76      O      0.929010000000     0.531090000000     0.372090000000    -0.45121    
O77      O      0.931790000000     0.455000000000     0.370040000000    -0.447586   
O78      O      0.062680000000     0.460120000000     0.372020000000    -0.451124   
O79      O      0.995570000000     0.457420000000     0.403790000000    -0.449322   
O80      O      0.000480000000     0.457830000000     0.338270000000    -0.44897    
O81      O      0.496150000000     0.958520000000     0.403760000000    -0.449449   
O82      O      0.491180000000     0.958790000000     0.338240000000    -0.449194   
O83      O      0.559900000000     0.956040000000     0.370000000000    -0.447622   
O84      O      0.429010000000     0.961160000000     0.372000000000    -0.451137   
O85      O      0.431790000000     0.037260000000     0.369990000000    -0.447465   
O86      O      0.562680000000     0.032130000000     0.372010000000    -0.45106    
O87      O      0.500530000000     0.034480000000     0.338240000000    -0.449125   
O88      O      0.495520000000     0.034780000000     0.403760000000    -0.44916    
O89      O      0.559920000000     0.455010000000     0.370060000000    -0.447732   
O90      O      0.429030000000     0.460090000000     0.372090000000    -0.451285   
O91      O      0.491190000000     0.457790000000     0.338320000000    -0.449456   
O92      O      0.496260000000     0.457430000000     0.403830000000    -0.449535   
O93      O      0.495320000000     0.533680000000     0.403860000000    -0.449289   
O94      O      0.500630000000     0.533460000000     0.338340000000    -0.449427   
O95      O      0.431780000000     0.536180000000     0.370020000000    -0.447639   
O96      O      0.562660000000     0.531090000000     0.372170000000    -0.45121    
O97      O      0.060740000000     0.034850000000     0.622080000000    -0.448104   
O98      O      0.929780000000     0.033890000000     0.620380000000    -0.450922   
O99      O      0.992240000000     0.034180000000     0.653990000000    -0.449276   
O100     O      0.996780000000     0.034470000000     0.588460000000    -0.44938    
O101     O      0.994540000000     0.958240000000     0.588420000000    -0.449647   
O102     O      0.998950000000     0.958210000000     0.653940000000    -0.449489   
O103     O      0.930510000000     0.957700000000     0.622000000000    -0.448423   
O104     O      0.061480000000     0.958670000000     0.620370000000    -0.450959   
O105     O      0.061700000000     0.532930000000     0.620430000000    -0.450954   
O106     O      0.930720000000     0.533980000000     0.622030000000    -0.448397   
O107     O      0.999130000000     0.533350000000     0.653990000000    -0.449659   
O108     O      0.994810000000     0.533480000000     0.588460000000    -0.449518   
O109     O      0.996900000000     0.457240000000     0.588460000000    -0.449504   
O110     O      0.992430000000     0.457380000000     0.653990000000    -0.449549   
O111     O      0.929940000000     0.457790000000     0.620390000000    -0.451145   
O112     O      0.060910000000     0.456740000000     0.622070000000    -0.448238   
O113     O      0.430540000000     0.957650000000     0.622000000000    -0.448374   
O114     O      0.561510000000     0.958710000000     0.620300000000    -0.451238   
O115     O      0.499050000000     0.958190000000     0.653910000000    -0.449613   
O116     O      0.494510000000     0.958260000000     0.588390000000    -0.44967    
O117     O      0.496600000000     0.034490000000     0.588440000000    -0.449383   
O118     O      0.492360000000     0.034150000000     0.653970000000    -0.449312   
O119     O      0.560730000000     0.034890000000     0.621990000000    -0.448333   
O120     O      0.429750000000     0.033840000000     0.620430000000    -0.451027   
O121     O      0.499230000000     0.533310000000     0.654030000000    -0.449669   
O122     O      0.494630000000     0.533490000000     0.588510000000    -0.449527   
O123     O      0.430700000000     0.533920000000     0.622140000000    -0.448583   
O124     O      0.561670000000     0.532960000000     0.620410000000    -0.451167   
O125     O      0.560940000000     0.456780000000     0.622070000000    -0.448537   
O126     O      0.429960000000     0.457740000000     0.620460000000    -0.451139   
O127     O      0.496880000000     0.457260000000     0.588490000000    -0.449583   
O128     O      0.492530000000     0.457340000000     0.654020000000    -0.449489   


