data_structure

_audit_creation_method RASPA-1.0
_audit_creation_date 2023-5-23
_audit_author_name 'Poobodin Mano'

_cell_length_a    43.7802
_cell_length_b    43.7799
_cell_length_c    29.2206
_cell_angle_alpha 90
_cell_angle_beta  90
_cell_angle_gamma 90
_cell_volume      56006.9

_symmetry_cell_setting          triclinic
_symmetry_space_group_name_Hall 'P 1'
_symmetry_space_group_name_H-M  'P 1'
_symmetry_Int_Tables_number     1

_symmetry_equiv_pos_as_xyz 'x,y,z'

loop_
_atom_site_label
_atom_site_type_symbol
_atom_site_fract_x
_atom_site_fract_y
_atom_site_fract_z
_atom_site_charge
C1       C      0.494370000000     0.825000000000     0.073280000000     0.431595   
C2       C      0.497350000000     0.829980000000     0.899090000000     0.431745   
C3       C      0.437710000000     0.828090000000     0.983850000000     0.43233    
C4       C      0.554040000000     0.827030000000     0.988690000000     0.432305   
C5       C      0.496350000000     0.825940000000     0.399120000000     0.431198   
C6       C      0.496680000000     0.829260000000     0.573310000000     0.431379   
C7       C      0.554630000000     0.827260000000     0.486310000000     0.431946   
C8       C      0.438460000000     0.828000000000     0.486450000000     0.432206   
C9       C      0.828880000000     0.493990000000     0.084820000000     0.431349   
C10      C      0.828850000000     0.497710000000     0.910670000000     0.430916   
C11      C      0.828790000000     0.553910000000     0.000800000000     0.43154    
C12      C      0.829070000000     0.437770000000     0.994830000000     0.431428   
C13      C      0.828710000000     0.495470000000     0.410630000000     0.431187   
C14      C      0.828710000000     0.497800000000     0.584830000000     0.431007   
C15      C      0.828870000000     0.438590000000     0.499420000000     0.432332   
C16      C      0.828610000000     0.554710000000     0.495960000000     0.432229   
C17      C      0.495300000000     0.163880000000     0.081100000000     0.431085   
C18      C      0.498990000000     0.163840000000     0.906950000000     0.43133    
C19      C      0.555230000000     0.163730000000     0.996920000000     0.431474   
C20      C      0.439090000000     0.163870000000     0.990990000000     0.431711   
C21      C      0.495110000000     0.164010000000     0.406940000000     0.430966   
C22      C      0.497390000000     0.164010000000     0.581140000000     0.431126   
C23      C      0.438170000000     0.164020000000     0.495780000000     0.4321     
C24      C      0.554290000000     0.163920000000     0.492400000000     0.432317   
C25      C      0.162600000000     0.495100000000     0.093050000000     0.431913   
C26      C      0.167580000000     0.498140000000     0.918860000000     0.431349   
C27      C      0.165640000000     0.438440000000     0.003410000000     0.432304   
C28      C      0.164420000000     0.554770000000     0.008330000000     0.432017   
C29      C      0.166630000000     0.495860000000     0.593020000000     0.431241   
C30      C      0.163320000000     0.495510000000     0.418830000000     0.431316   
C31      C      0.165400000000     0.437560000000     0.505850000000     0.432043   
C32      C      0.164480000000     0.553730000000     0.505690000000     0.432151   
C33      C      0.771000000000     0.827260000000     0.004700000000     0.431707   
C34      C      0.887170000000     0.830550000000     0.011420000000     0.430673   
C35      C      0.830770000000     0.770850000000     0.011080000000     0.432064   
C36      C      0.827540000000     0.887020000000     0.005680000000     0.430958   
C37      C      0.771590000000     0.829990000000     0.494900000000     0.432576   
C38      C      0.887830000000     0.829670000000     0.494370000000     0.431548   
C39      C      0.829690000000     0.771730000000     0.492890000000     0.432607   
C40      C      0.829720000000     0.887940000000     0.495630000000     0.431624   
C41      C      0.772340000000     0.162490000000     0.999210000000     0.431421   
C42      C      0.888540000000     0.162620000000     0.992630000000     0.430875   
C43      C      0.830550000000     0.220660000000     0.992410000000     0.431666   
C44      C      0.830330000000     0.104470000000     0.999060000000     0.430666   
C45      C      0.829510000000     0.221540000000     0.498350000000     0.432648   
C46      C      0.829340000000     0.105350000000     0.494330000000     0.431465   
C47      C      0.771340000000     0.163480000000     0.493850000000     0.432801   
C48      C      0.887530000000     0.163430000000     0.497860000000     0.431579   
C49      C      0.165770000000     0.221490000000     0.987030000000     0.431398   
C50      C      0.162420000000     0.105320000000     0.980370000000     0.430661   
C51      C      0.222150000000     0.161700000000     0.980660000000     0.431861   
C52      C      0.105990000000     0.164990000000     0.986080000000     0.430831   
C53      C      0.162920000000     0.220600000000     0.497310000000     0.432265   
C54      C      0.163170000000     0.104360000000     0.497800000000     0.431416   
C55      C      0.221150000000     0.162470000000     0.499300000000     0.432522   
C56      C      0.104950000000     0.162500000000     0.496550000000     0.431605   
C57      C      0.220590000000     0.829840000000     0.989570000000     0.431349   
C58      C      0.104630000000     0.830100000000     0.002520000000     0.430514   
C59      C      0.162580000000     0.771900000000     0.002550000000     0.431636   
C60      C      0.162450000000     0.887850000000     0.989460000000     0.430147   
C61      C      0.163370000000     0.770740000000     0.498730000000     0.432415   
C62      C      0.163420000000     0.886930000000     0.494210000000     0.431503   
C63      C      0.221450000000     0.828770000000     0.493610000000     0.432169   
C64      C      0.105260000000     0.828830000000     0.498030000000     0.431534   
C65      C      0.163410000000     0.936410000000     0.535730000000    -0.0202586  
C66      C      0.162970000000     0.055040000000     0.455450000000    -0.0200814  
C67      C      0.164040000000     0.054230000000     0.538620000000    -0.0204709  
C68      C      0.163880000000     0.022710000000     0.519910000000     0.0134545  
C69      C      0.163500000000     0.023170000000     0.472480000000     0.012737   
C70      C      0.163580000000     0.996140000000     0.446710000000    -0.0653288  
C71      C      0.163970000000     0.936930000000     0.452550000000    -0.0203625  
C72      C      0.163880000000     0.995160000000     0.544250000000    -0.0657967  
C73      C      0.163820000000     0.968560000000     0.471060000000     0.0130356  
C74      C      0.163740000000     0.968160000000     0.518500000000     0.0133432  
C75      C      0.163330000000     0.936390000000     0.943780000000    -0.02027    
C76      C      0.160100000000     0.055950000000     0.021570000000    -0.0204312  
C77      C      0.163050000000     0.055140000000     0.938520000000    -0.0203035  
C78      C      0.162360000000     0.023470000000     0.957240000000     0.0120067  
C79      C      0.160750000000     0.024200000000     0.004600000000     0.0140761  
C80      C      0.160130000000     0.997480000000     0.030760000000    -0.0665131  
C81      C      0.160910000000     0.938700000000     0.026810000000    -0.0205098  
C82      C      0.163300000000     0.995590000000     0.933390000000    -0.0644702  
C83      C      0.161120000000     0.969780000000     0.007050000000     0.0142049  
C84      C      0.162590000000     0.968700000000     0.959700000000     0.0120419  
C85      C      0.937140000000     0.163400000000     0.456550000000    -0.0201695  
C86      C      0.055380000000     0.162110000000     0.538130000000    -0.0202372  
C87      C      0.055070000000     0.163630000000     0.454960000000    -0.0203334  
C88      C      0.023420000000     0.163470000000     0.473260000000     0.0132283  
C89      C      0.023630000000     0.162860000000     0.520690000000     0.0129972  
C90      C      0.996490000000     0.162960000000     0.546160000000    -0.0655556  
C91      C      0.937370000000     0.163690000000     0.539740000000    -0.0203521  
C92      C      0.995990000000     0.163690000000     0.448610000000    -0.0655927  
C93      C      0.969050000000     0.163450000000     0.521500000000     0.0132424  
C94      C      0.968850000000     0.163550000000     0.474070000000     0.0131212  
C95      C      0.055730000000     0.165270000000     0.946180000000    -0.0202898  
C96      C      0.938830000000     0.162990000000     0.032300000000    -0.0201854  
C97      C      0.937700000000     0.163650000000     0.949140000000    -0.0203869  
C98      C      0.969670000000     0.164180000000     0.966170000000     0.0130376  
C99      C      0.970260000000     0.163990000000     0.013600000000     0.0132607  
C100     C      0.997830000000     0.164630000000     0.037990000000    -0.0656638  
C101     C      0.056780000000     0.165910000000     0.029350000000    -0.0203689  
C102     C      0.996680000000     0.164650000000     0.940460000000    -0.0653939  
C103     C      0.024840000000     0.165310000000     0.012280000000     0.0133363  
C104     C      0.024260000000     0.165140000000     0.964850000000     0.0128089  
C105     C      0.055790000000     0.828930000000     0.456480000000    -0.0203241  
C106     C      0.937150000000     0.829810000000     0.536720000000    -0.0200892  
C107     C      0.937960000000     0.828700000000     0.453550000000    -0.0204687  
C108     C      0.969480000000     0.828770000000     0.472270000000     0.0135495  
C109     C      0.969010000000     0.829160000000     0.519700000000     0.0128204  
C110     C      0.996040000000     0.829000000000     0.545480000000    -0.0653202  
C111     C      0.055250000000     0.828400000000     0.539670000000    -0.0203381  
C112     C      0.997030000000     0.828660000000     0.447940000000    -0.0657996  
C113     C      0.023620000000     0.828650000000     0.521140000000     0.0129499  
C114     C      0.024030000000     0.828710000000     0.473700000000     0.013276   
C115     C      0.830180000000     0.937510000000     0.454060000000    -0.0202199  
C116     C      0.829240000000     0.055740000000     0.535640000000    -0.0202182  
C117     C      0.828930000000     0.055520000000     0.452440000000    -0.0203665  
C118     C      0.829090000000     0.023840000000     0.470680000000     0.0131555  
C119     C      0.828990000000     0.024030000000     0.518120000000     0.013084   
C120     C      0.828780000000     0.996900000000     0.543580000000    -0.0656123  
C121     C      0.828680000000     0.937820000000     0.537220000000    -0.0203592  
C122     C      0.829480000000     0.996400000000     0.446030000000    -0.0655006  
C123     C      0.828910000000     0.969460000000     0.518920000000     0.0133272  
C124     C      0.829510000000     0.969250000000     0.471500000000     0.0130502  
C125     C      0.053800000000     0.831730000000     0.965120000000    -0.0204999  
C126     C      0.937330000000     0.829860000000     0.053310000000    -0.0204683  
C127     C      0.936560000000     0.832810000000     0.970260000000    -0.0204996  
C128     C      0.968300000000     0.832100000000     0.987260000000     0.013789   
C129     C      0.969010000000     0.830490000000     0.034610000000     0.0125016  
C130     C      0.996880000000     0.829490000000     0.058490000000    -0.064703   
C131     C      0.056080000000     0.829330000000     0.048150000000    -0.0203345  
C132     C      0.995030000000     0.832640000000     0.961120000000    -0.0662998  
C133     C      0.023780000000     0.830140000000     0.032200000000     0.0123586  
C134     C      0.022720000000     0.831600000000     0.984850000000     0.0137436  
C135     C      0.829220000000     0.055310000000     0.042580000000    -0.020559   
C136     C      0.826710000000     0.936230000000     0.962410000000    -0.020458   
C137     C      0.827310000000     0.937280000000     0.045570000000    -0.0203641  
C138     C      0.827520000000     0.968750000000     0.026900000000     0.0132679  
C139     C      0.827370000000     0.968170000000     0.979470000000     0.013067   
C140     C      0.828130000000     0.995170000000     0.953760000000    -0.0654392  
C141     C      0.829910000000     0.054160000000     0.959420000000    -0.0202767  
C142     C      0.828070000000     0.996330000000     0.051290000000    -0.0656108  
C143     C      0.828830000000     0.022740000000     0.978140000000     0.0128186  
C144     C      0.828620000000     0.023340000000     0.025560000000     0.0133578  
C145     C      0.186710000000     0.603780000000     0.528810000000    -0.0207357  
C146     C      0.145990000000     0.720550000000     0.468480000000    -0.0208286  
C147     C      0.180750000000     0.721770000000     0.533380000000    -0.020743   
C148     C      0.174260000000     0.689820000000     0.519500000000     0.0136141  
C149     C      0.152750000000     0.689170000000     0.484700000000     0.0138651  
C150     C      0.139970000000     0.661620000000     0.469550000000    -0.0659167  
C151     C      0.141380000000     0.602870000000     0.480740000000    -0.0207295  
C152     C      0.187380000000     0.662870000000     0.536410000000    -0.0657989  
C153     C      0.151590000000     0.634710000000     0.488830000000     0.013855   
C154     C      0.176070000000     0.635280000000     0.518910000000     0.0136721  
C155     C      0.179540000000     0.270520000000     0.464700000000    -0.0205725  
C156     C      0.143040000000     0.387750000000     0.529440000000    -0.0208732  
C157     C      0.187330000000     0.388180000000     0.479220000000    -0.0206135  
C158     C      0.176420000000     0.356470000000     0.486770000000     0.0133737  
C159     C      0.152550000000     0.356180000000     0.517930000000     0.0141022  
C160     C      0.140810000000     0.328740000000     0.535170000000    -0.0661222  
C161     C      0.145850000000     0.269880000000     0.530850000000    -0.020861   
C162     C      0.186940000000     0.329440000000     0.466340000000    -0.0654304  
C163     C      0.152780000000     0.301670000000     0.516970000000     0.0140574  
C164     C      0.173680000000     0.302040000000     0.481350000000     0.0133236  
C165     C      0.180390000000     0.723110000000     0.037890000000    -0.0207324  
C166     C      0.140100000000     0.603990000000     0.986860000000    -0.020965   
C167     C      0.186920000000     0.604850000000     0.031580000000    -0.0206915  
C168     C      0.175610000000     0.636400000000     0.023370000000     0.0133859  
C169     C      0.150160000000     0.635830000000     0.995190000000     0.0139783  
C170     C      0.137680000000     0.662740000000     0.977250000000    -0.0661087  
C171     C      0.143310000000     0.721580000000     0.975990000000    -0.0211162  
C172     C      0.187330000000     0.664040000000     0.040300000000    -0.065385   
C173     C      0.150680000000     0.690300000000     0.991820000000     0.0140404  
C174     C      0.173410000000     0.691020000000     0.024820000000     0.0133543  
C175     C      0.143280000000     0.389540000000     0.975980000000    -0.0208238  
C176     C      0.183940000000     0.269960000000     0.022660000000    -0.0208389  
C177     C      0.148970000000     0.272210000000     0.958100000000    -0.0208647  
C178     C      0.155660000000     0.303320000000     0.975520000000     0.0136604  
C179     C      0.177290000000     0.302150000000     0.010120000000     0.0137392  
C180     C      0.190170000000     0.328880000000     0.028260000000    -0.0657828  
C181     C      0.188760000000     0.388160000000     0.023690000000    -0.0209021  
C182     C      0.142560000000     0.331060000000     0.961810000000    -0.0657625  
C183     C      0.178540000000     0.356740000000     0.012150000000     0.0138121  
C184     C      0.153970000000     0.357680000000     0.982280000000     0.0136573  
C185     C      0.140810000000     0.499870000000     0.844140000000    -0.0201835  
C186     C      0.195360000000     0.494950000000     0.666990000000    -0.0202947  
C187     C      0.139930000000     0.498160000000     0.668080000000    -0.0205301  
C188     C      0.152300000000     0.498140000000     0.715240000000     0.013659   
C189     C      0.183910000000     0.496450000000     0.714820000000     0.0124996  
C190     C      0.200880000000     0.496240000000     0.755630000000    -0.0651748  
C191     C      0.196280000000     0.497660000000     0.844510000000    -0.0204628  
C192     C      0.135850000000     0.499430000000     0.756210000000    -0.0662677  
C193     C      0.184370000000     0.497700000000     0.796780000000     0.0126616  
C194     C      0.152740000000     0.499120000000     0.796860000000     0.0134106  
C195     C      0.133910000000     0.493170000000     0.167350000000    -0.0203481  
C196     C      0.190050000000     0.497160000000     0.343790000000    -0.020471   
C197     C      0.134660000000     0.493340000000     0.344880000000    -0.020183   
C198     C      0.146150000000     0.493980000000     0.297050000000     0.0124635  
C199     C      0.177750000000     0.495990000000     0.296640000000     0.0137089  
C200     C      0.194230000000     0.496690000000     0.255680000000    -0.0662572  
C201     C      0.189360000000     0.495850000000     0.167780000000    -0.0201526  
C202     C      0.129240000000     0.492890000000     0.256230000000    -0.0651116  
C203     C      0.177400000000     0.495440000000     0.215030000000     0.01352    
C204     C      0.145780000000     0.493750000000     0.215090000000     0.0126571  
C205     C      0.388630000000     0.185930000000     0.522040000000    -0.0207531  
C206     C      0.270740000000     0.145310000000     0.466940000000    -0.0207907  
C207     C      0.270750000000     0.179030000000     0.533080000000    -0.0207123  
C208     C      0.302440000000     0.172920000000     0.517400000000     0.0134738  
C209     C      0.302390000000     0.151970000000     0.481820000000     0.0140048  
C210     C      0.329600000000     0.139710000000     0.464590000000    -0.066049   
C211     C      0.388520000000     0.141440000000     0.472220000000    -0.0206865  
C212     C      0.329730000000     0.186000000000     0.533200000000    -0.065597   
C213     C      0.356890000000     0.151240000000     0.482680000000     0.0139861  
C214     C      0.356940000000     0.175200000000     0.513680000000     0.0135385  
C215     C      0.603980000000     0.186030000000     0.467130000000    -0.0206315  
C216     C      0.721500000000     0.146080000000     0.525120000000    -0.0206849  
C217     C      0.722000000000     0.180200000000     0.459460000000    -0.0206423  
C218     C      0.690180000000     0.173750000000     0.474200000000     0.0134712  
C219     C      0.689970000000     0.152600000000     0.509500000000     0.0139307  
C220     C      0.662640000000     0.140010000000     0.525780000000    -0.0660362  
C221     C      0.603810000000     0.141300000000     0.516470000000    -0.020792   
C222     C      0.663000000000     0.186670000000     0.457740000000    -0.0656048  
C223     C      0.635500000000     0.151400000000     0.507030000000     0.0140199  
C224     C      0.635630000000     0.175520000000     0.476300000000     0.0134811  
C225     C      0.389220000000     0.140590000000     0.011870000000    -0.0206139  
C226     C      0.272080000000     0.178060000000     0.947660000000    -0.0207233  
C227     C      0.271420000000     0.142900000000     0.012050000000    -0.0207119  
C228     C      0.303210000000     0.150090000000     0.998530000000     0.0138604  
C229     C      0.303630000000     0.171770000000     0.963970000000     0.013289   
C230     C      0.331070000000     0.185490000000     0.949950000000    -0.0653937  
C231     C      0.389790000000     0.185890000000     0.963730000000    -0.02069    
C232     C      0.330230000000     0.137880000000     0.016470000000    -0.0659819  
C233     C      0.358060000000     0.174610000000     0.970120000000     0.0132056  
C234     C      0.357700000000     0.150100000000     0.000140000000     0.0141355  
C235     C      0.722880000000     0.179250000000     0.033480000000    -0.02071    
C236     C      0.604880000000     0.140630000000     0.974630000000    -0.0207624  
C237     C      0.604820000000     0.185810000000     0.023020000000    -0.0206551  
C238     C      0.636520000000     0.174920000000     0.015040000000     0.013453   
C239     C      0.636530000000     0.150490000000     0.984870000000     0.0139281  
C240     C      0.663770000000     0.138690000000     0.967070000000    -0.0660803  
C241     C      0.722600000000     0.144360000000     0.968740000000    -0.0209385  
C242     C      0.663810000000     0.186070000000     0.033970000000    -0.0654846  
C243     C      0.691020000000     0.151200000000     0.983740000000     0.0139493  
C244     C      0.691080000000     0.172750000000     0.018490000000     0.0134316  
C245     C      0.502660000000     0.191440000000     0.832460000000    -0.020377   
C246     C      0.495600000000     0.136350000000     0.655670000000    -0.0203145  
C247     C      0.501260000000     0.191580000000     0.655630000000    -0.0203674  
C248     C      0.500630000000     0.179670000000     0.703140000000     0.013033   
C249     C      0.497410000000     0.148170000000     0.703150000000     0.0131012  
C250     C      0.496040000000     0.131500000000     0.744040000000    -0.0657777  
C251     C      0.497010000000     0.136210000000     0.832410000000    -0.0203474  
C252     C      0.502670000000     0.196270000000     0.744040000000    -0.065663   
C253     C      0.498110000000     0.148100000000     0.784930000000     0.0131199  
C254     C      0.501330000000     0.179600000000     0.784940000000     0.0130329  
C255     C      0.496960000000     0.136250000000     0.155660000000    -0.0202654  
C256     C      0.491550000000     0.191590000000     0.332420000000    -0.0205336  
C257     C      0.497090000000     0.136340000000     0.332420000000    -0.0202775  
C258     C      0.495640000000     0.148180000000     0.284930000000     0.0130175  
C259     C      0.492490000000     0.179680000000     0.284910000000     0.0131066  
C260     C      0.490810000000     0.196310000000     0.243980000000    -0.0657386  
C261     C      0.491450000000     0.191500000000     0.155560000000    -0.02045    
C262     C      0.497280000000     0.131520000000     0.244050000000    -0.0657135  
C263     C      0.492420000000     0.179640000000     0.203090000000     0.0131022  
C264     C      0.495560000000     0.148140000000     0.203140000000     0.0130121  
C265     C      0.846940000000     0.271370000000     0.467070000000    -0.0207464  
C266     C      0.806830000000     0.388900000000     0.524780000000    -0.0206909  
C267     C      0.851570000000     0.389080000000     0.475450000000    -0.0207348  
C268     C      0.841520000000     0.357390000000     0.484980000000     0.013975   
C269     C      0.817390000000     0.357250000000     0.515690000000     0.0135267  
C270     C      0.806270000000     0.329890000000     0.534310000000    -0.0656156  
C271     C      0.812810000000     0.270890000000     0.532730000000    -0.0206823  
C272     C      0.852950000000     0.330230000000     0.466280000000    -0.0660402  
C273     C      0.819220000000     0.302700000000     0.517920000000     0.013464   
C274     C      0.840380000000     0.302910000000     0.482630000000     0.01397    
C275     C      0.813190000000     0.722130000000     0.459060000000    -0.020651   
C276     C      0.851110000000     0.604380000000     0.519570000000    -0.020702   
C277     C      0.806620000000     0.604220000000     0.469750000000    -0.0206522  
C278     C      0.817260000000     0.635920000000     0.478200000000     0.0134964  
C279     C      0.841230000000     0.636000000000     0.509200000000     0.0140063  
C280     C      0.852670000000     0.663300000000     0.527380000000    -0.0660391  
C281     C      0.846900000000     0.722150000000     0.525200000000    -0.0207015  
C282     C      0.806380000000     0.663130000000     0.458770000000    -0.0655368  
C283     C      0.840320000000     0.690500000000     0.510240000000     0.0139861  
C284     C      0.819380000000     0.690440000000     0.474660000000     0.0134384  
C285     C      0.813770000000     0.270110000000     0.958120000000    -0.0206245  
C286     C      0.852230000000     0.388140000000     0.017080000000    -0.0208206  
C287     C      0.807050000000     0.388160000000     0.968690000000    -0.0206671  
C288     C      0.817980000000     0.356470000000     0.976640000000     0.0130862  
C289     C      0.842420000000     0.356490000000     0.006810000000     0.0143163  
C290     C      0.854260000000     0.329250000000     0.024580000000    -0.0662744  
C291     C      0.848660000000     0.270420000000     0.022870000000    -0.0209723  
C292     C      0.806880000000     0.329180000000     0.957680000000    -0.0652612  
C293     C      0.841780000000     0.301990000000     0.007890000000     0.0143691  
C294     C      0.820240000000     0.301910000000     0.973130000000     0.0130146  
C295     C      0.849590000000     0.721600000000     0.979680000000    -0.021065   
C296     C      0.806710000000     0.603190000000     0.028040000000    -0.0206944  
C297     C      0.852010000000     0.603800000000     0.979910000000    -0.0208857  
C298     C      0.842470000000     0.635310000000     0.991630000000     0.0139704  
C299     C      0.817950000000     0.634930000000     0.021630000000     0.0134423  
C300     C      0.807040000000     0.661920000000     0.041790000000    -0.0654706  
C301     C      0.814410000000     0.720910000000     0.044070000000    -0.0207799  
C302     C      0.854660000000     0.662790000000     0.975280000000    -0.0661675  
C303     C      0.820720000000     0.689360000000     0.027750000000     0.0134379  
C304     C      0.842410000000     0.689800000000     0.993200000000     0.0140163  
C305     C      0.856380000000     0.495880000000     0.659350000000    -0.0204079  
C306     C      0.801220000000     0.501520000000     0.836210000000    -0.0204143  
C307     C      0.856480000000     0.496090000000     0.836100000000    -0.020437   
C308     C      0.844590000000     0.497460000000     0.788630000000     0.0130961  
C309     C      0.813080000000     0.500560000000     0.788680000000     0.0130386  
C310     C      0.796410000000     0.502130000000     0.747790000000    -0.0656596  
C311     C      0.801120000000     0.501350000000     0.659350000000    -0.0204234  
C312     C      0.861200000000     0.495740000000     0.747720000000    -0.06574    
C313     C      0.813030000000     0.500450000000     0.706860000000     0.0130294  
C314     C      0.844540000000     0.497340000000     0.706840000000     0.0130916  
C315     C      0.801280000000     0.490270000000     0.159300000000    -0.0203911  
C316     C      0.856380000000     0.497300000000     0.336100000000    -0.0204603  
C317     C      0.801150000000     0.491570000000     0.336140000000    -0.0203071  
C318     C      0.813060000000     0.492230000000     0.288630000000     0.0129811  
C319     C      0.844550000000     0.495500000000     0.288620000000     0.0131855  
C320     C      0.861220000000     0.496910000000     0.247730000000    -0.0658111  
C321     C      0.856520000000     0.495980000000     0.159360000000    -0.0204711  
C322     C      0.796460000000     0.490200000000     0.247730000000    -0.0656092  
C323     C      0.844620000000     0.494840000000     0.206840000000     0.013193   
C324     C      0.813130000000     0.491580000000     0.206830000000     0.0130025  
C325     C      0.388440000000     0.805680000000     0.463380000000    -0.0207026  
C326     C      0.271630000000     0.846170000000     0.523860000000    -0.0208126  
C327     C      0.270430000000     0.811400000000     0.458980000000    -0.0207055  
C328     C      0.302380000000     0.817950000000     0.472820000000     0.0135702  
C329     C      0.303010000000     0.839470000000     0.507610000000     0.0138887  
C330     C      0.330540000000     0.852300000000     0.522710000000    -0.0659024  
C331     C      0.389290000000     0.851020000000     0.511430000000    -0.0206968  
C332     C      0.329350000000     0.804890000000     0.455870000000    -0.0657314  
C333     C      0.357470000000     0.840740000000     0.503390000000     0.0138476  
C334     C      0.356930000000     0.816260000000     0.473330000000     0.01365    
C335     C      0.604410000000     0.849700000000     0.462740000000    -0.0208516  
C336     C      0.721680000000     0.813350000000     0.527530000000    -0.0205978  
C337     C      0.722290000000     0.847040000000     0.461370000000    -0.0208939  
C338     C      0.690510000000     0.840070000000     0.475250000000     0.0140493  
C339     C      0.690150000000     0.819180000000     0.510880000000     0.0133635  
C340     C      0.662770000000     0.805870000000     0.525870000000    -0.0655234  
C341     C      0.604040000000     0.805410000000     0.512960000000    -0.0206127  
C342     C      0.663420000000     0.852010000000     0.457040000000    -0.0661055  
C343     C      0.635740000000     0.816360000000     0.505430000000     0.0134128  
C344     C      0.636000000000     0.840230000000     0.474270000000     0.0140914  
C345     C      0.270900000000     0.849100000000     0.016180000000    -0.0210283  
C346     C      0.387650000000     0.805530000000     0.960640000000    -0.0206878  
C347     C      0.388470000000     0.852360000000     0.005350000000    -0.0204479  
C348     C      0.356650000000     0.842280000000     0.997030000000     0.013842   
C349     C      0.356100000000     0.816820000000     0.968850000000     0.0133097  
C350     C      0.328470000000     0.805090000000     0.951910000000    -0.0653459  
C351     C      0.269400000000     0.812010000000     0.954290000000    -0.0207041  
C352     C      0.329740000000     0.854750000000     0.014950000000    -0.0659675  
C353     C      0.301480000000     0.819000000000     0.967380000000     0.0131008  
C354     C      0.302180000000     0.841740000000     0.000370000000     0.0142651  
C355     C      0.722550000000     0.809070000000     0.969080000000    -0.0207697  
C356     C      0.602920000000     0.849470000000     0.016040000000    -0.02076    
C357     C      0.604350000000     0.803990000000     0.968330000000    -0.0207358  
C358     C      0.635760000000     0.814280000000     0.979790000000     0.0133933  
C359     C      0.634800000000     0.838850000000     0.009660000000     0.014049   
C360     C      0.661410000000     0.850320000000     0.030060000000    -0.065948   
C361     C      0.720280000000     0.844030000000     0.033640000000    -0.0209008  
C362     C      0.663630000000     0.802710000000     0.963610000000    -0.0655616  
C363     C      0.689170000000     0.837280000000     0.016280000000     0.0140392  
C364     C      0.690350000000     0.815650000000     0.981680000000     0.0133307  
C365     C      0.499180000000     0.858680000000     0.824780000000    -0.0203673  
C366     C      0.495100000000     0.802530000000     0.648360000000    -0.0204775  
C367     C      0.498840000000     0.857930000000     0.647260000000    -0.0203021  
C368     C      0.498260000000     0.846430000000     0.695090000000     0.012509   
C369     C      0.496290000000     0.814830000000     0.695510000000     0.0137007  
C370     C      0.495660000000     0.798350000000     0.736470000000    -0.0662847  
C371     C      0.496590000000     0.803220000000     0.824370000000    -0.0202466  
C372     C      0.499360000000     0.863350000000     0.735910000000    -0.0651366  
C373     C      0.496930000000     0.815180000000     0.777110000000     0.0135491  
C374     C      0.498570000000     0.846800000000     0.777050000000     0.0126717  
C375     C      0.494050000000     0.852630000000     0.324060000000    -0.0204512  
C376     C      0.494850000000     0.796300000000     0.147630000000    -0.0204673  
C377     C      0.492580000000     0.851770000000     0.148000000000    -0.0202216  
C378     C      0.493280000000     0.839830000000     0.195280000000     0.0134381  
C379     C      0.494740000000     0.808210000000     0.195360000000     0.0126608  
C380     C      0.496170000000     0.791700000000     0.236500000000    -0.0651084  
C381     C      0.497340000000     0.797210000000     0.325150000000    -0.0202965  
C382     C      0.492890000000     0.856720000000     0.235930000000    -0.0662613  
C383     C      0.495880000000     0.808660000000     0.277320000000     0.0124834  
C384     C      0.494160000000     0.840270000000     0.276900000000     0.0136547  
H1       H      0.184990000000     0.058600000000     0.559080000000     0.0438219  
H2       H      0.183260000000     0.059970000000     0.433810000000     0.0431295  
H3       H      0.163410000000     0.996560000000     0.409670000000     0.0439991  
H4       H      0.163940000000     0.994750000000     0.581280000000     0.0442082  
H5       H      0.183840000000     0.931610000000     0.557130000000     0.0434491  
H6       H      0.143540000000     0.932540000000     0.430960000000     0.043054   
H7       H      0.143730000000     0.058470000000     0.560520000000     0.0432486  
H8       H      0.142000000000     0.059560000000     0.435090000000     0.0442445  
H9       H      0.184810000000     0.932550000000     0.431850000000     0.0435537  
H10      H      0.142580000000     0.931900000000     0.556430000000     0.0445394  
H11      H      0.143140000000     0.059500000000     0.915860000000     0.0430159  
H12      H      0.138680000000     0.060650000000     0.040740000000     0.0442244  
H13      H      0.159000000000     0.998210000000     0.067760000000     0.0440834  
H14      H      0.164570000000     0.994860000000     0.896410000000     0.0440609  
H15      H      0.143350000000     0.931090000000     0.921710000000     0.0433624  
H16      H      0.180960000000     0.935040000000     0.049490000000     0.0436852  
H17      H      0.184360000000     0.059420000000     0.918880000000     0.0434614  
H18      H      0.179880000000     0.060640000000     0.044380000000     0.0438106  
H19      H      0.139730000000     0.934580000000     0.046870000000     0.0441485  
H20      H      0.184580000000     0.931450000000     0.924330000000     0.0433693  
H21      H      0.059620000000     0.184660000000     0.434790000000     0.0437737  
H22      H      0.060260000000     0.182240000000     0.560110000000     0.0432456  
H23      H      0.996720000000     0.162640000000     0.583190000000     0.0441134  
H24      H      0.995760000000     0.163910000000     0.411570000000     0.0440912  
H25      H      0.932500000000     0.183940000000     0.435270000000     0.0432311  
H26      H      0.932810000000     0.143220000000     0.561170000000     0.043127   
H27      H      0.059370000000     0.143400000000     0.432900000000     0.0431053  
H28      H      0.059700000000     0.141000000000     0.558250000000     0.0443485  
H29      H      0.933020000000     0.184490000000     0.560540000000     0.0437036  
H30      H      0.932630000000     0.142670000000     0.435660000000     0.0444445  
H31      H      0.933330000000     0.143100000000     0.927790000000     0.0432114  
H32      H      0.935140000000     0.142030000000     0.053040000000     0.0441713  
H33      H      0.998240000000     0.164540000000     0.075020000000     0.0441181  
H34      H      0.996280000000     0.164580000000     0.903420000000     0.0440722  
H35      H      0.060120000000     0.144580000000     0.925140000000     0.0444177  
H36      H      0.061290000000     0.186880000000     0.049680000000     0.0435976  
H37      H      0.932490000000     0.184360000000     0.928580000000     0.0438035  
H38      H      0.934070000000     0.183280000000     0.054040000000     0.0433258  
H39      H      0.061810000000     0.145620000000     0.050940000000     0.04337    
H40      H      0.059850000000     0.185840000000     0.924760000000     0.0430492  
H41      H      0.933530000000     0.807760000000     0.433090000000     0.0438489  
H42      H      0.932150000000     0.809540000000     0.558390000000     0.0431626  
H43      H      0.995620000000     0.829190000000     0.582520000000     0.0440012  
H44      H      0.997450000000     0.828590000000     0.410910000000     0.0442201  
H45      H      0.060520000000     0.808470000000     0.435120000000     0.0434443  
H46      H      0.059700000000     0.848830000000     0.561250000000     0.0430358  
H47      H      0.933780000000     0.849030000000     0.431650000000     0.0432768  
H48      H      0.932690000000     0.850800000000     0.557050000000     0.0442702  
H49      H      0.059560000000     0.807560000000     0.560380000000     0.0435261  
H50      H      0.060360000000     0.849730000000     0.435760000000     0.044555   
H51      H      0.808150000000     0.059930000000     0.431650000000     0.0436899  
H52      H      0.808730000000     0.060440000000     0.556930000000     0.0432266  
H53      H      0.828570000000     0.997130000000     0.580620000000     0.0441015  
H54      H      0.829800000000     0.996160000000     0.408990000000     0.0440938  
H55      H      0.810020000000     0.932670000000     0.432100000000     0.0432485  
H56      H      0.848890000000     0.933460000000     0.559280000000     0.0431708  
H57      H      0.849420000000     0.060010000000     0.431010000000     0.0431089  
H58      H      0.849990000000     0.060190000000     0.556510000000     0.0444397  
H59      H      0.807630000000     0.933320000000     0.557390000000     0.0437876  
H60      H      0.851260000000     0.933130000000     0.433910000000     0.0443983  
H61      H      0.931840000000     0.813050000000     0.947440000000     0.0438177  
H62      H      0.933000000000     0.808570000000     0.072960000000     0.0435484  
H63      H      0.997590000000     0.828220000000     0.095470000000     0.0441376  
H64      H      0.994320000000     0.833770000000     0.924120000000     0.0440284  
H65      H      0.057430000000     0.811660000000     0.942460000000     0.0436173  
H66      H      0.061410000000     0.849300000000     0.070220000000     0.0433826  
H67      H      0.931910000000     0.854240000000     0.951090000000     0.0442332  
H68      H      0.933000000000     0.849780000000     0.075960000000     0.0431034  
H69      H      0.060960000000     0.808070000000     0.067620000000     0.0433657  
H70      H      0.057990000000     0.852890000000     0.945050000000     0.0441149  
H71      H      0.806720000000     0.933210000000     0.066970000000     0.0431017  
H72      H      0.805730000000     0.931760000000     0.942070000000     0.0435998  
H73      H      0.828230000000     0.994760000000     0.916720000000     0.0440424  
H74      H      0.828130000000     0.996740000000     0.088330000000     0.0441459  
H75      H      0.808520000000     0.060580000000     0.063130000000     0.0438455  
H76      H      0.850890000000     0.057800000000     0.938710000000     0.0441501  
H77      H      0.847980000000     0.932850000000     0.066640000000     0.0444882  
H78      H      0.846980000000     0.931150000000     0.940830000000     0.0433984  
H79      H      0.809650000000     0.058960000000     0.937650000000     0.0432939  
H80      H      0.849770000000     0.059640000000     0.063930000000     0.0432669  
H81      H      0.205550000000     0.727030000000     0.531390000000     0.0405447  
H82      H      0.153940000000     0.723820000000     0.432700000000     0.0458563  
H83      H      0.122000000000     0.661140000000     0.444120000000     0.0445394  
H84      H      0.205400000000     0.663350000000     0.561750000000     0.0444786  
H85      H      0.210010000000     0.599920000000     0.514870000000     0.045691   
H86      H      0.118160000000     0.599050000000     0.494990000000     0.0457454  
H87      H      0.172710000000     0.726180000000     0.568840000000     0.0457434  
H88      H      0.121150000000     0.725660000000     0.470170000000     0.0408343  
H89      H      0.141110000000     0.597220000000     0.443660000000     0.0408872  
H90      H      0.186980000000     0.599060000000     0.566180000000     0.0407278  
H91      H      0.186990000000     0.394370000000     0.442330000000     0.0409154  
H92      H      0.119540000000     0.392440000000     0.516900000000     0.0460389  
H93      H      0.123350000000     0.328470000000     0.561400000000     0.044445   
H94      H      0.204520000000     0.329710000000     0.440280000000     0.0443719  
H95      H      0.170760000000     0.267440000000     0.429310000000     0.045381   
H96      H      0.154170000000     0.265270000000     0.566120000000     0.0461201  
H97      H      0.210920000000     0.391180000000     0.492500000000     0.0453938  
H98      H      0.143780000000     0.391880000000     0.566950000000     0.0408634  
H99      H      0.120930000000     0.265140000000     0.529460000000     0.0408886  
H100     H      0.204300000000     0.264940000000     0.465190000000     0.0405609  
H101     H      0.188390000000     0.599660000000     0.068740000000     0.0406679  
H102     H      0.117430000000     0.599680000000     0.002710000000     0.0459233  
H103     H      0.118960000000     0.662250000000     0.953060000000     0.044388   
H104     H      0.206320000000     0.664530000000     0.064010000000     0.0443957  
H105     H      0.173500000000     0.727700000000     0.073840000000     0.04532    
H106     H      0.149730000000     0.724670000000     0.939480000000     0.0463074  
H107     H      0.209820000000     0.601450000000     0.015960000000     0.0455523  
H108     H      0.138650000000     0.598860000000     0.949670000000     0.0409499  
H109     H      0.118590000000     0.726690000000     0.979940000000     0.0409411  
H110     H      0.205100000000     0.728340000000     0.034040000000     0.0405106  
H111     H      0.156910000000     0.269580000000     0.922190000000     0.0456565  
H112     H      0.208740000000     0.264820000000     0.020120000000     0.0404994  
H113     H      0.208210000000     0.328050000000     0.053550000000     0.0444678  
H114     H      0.124440000000     0.331890000000     0.936640000000     0.044401   
H115     H      0.142840000000     0.396080000000     0.939230000000     0.0407631  
H116     H      0.189100000000     0.391980000000     0.061280000000     0.0407118  
H117     H      0.124140000000     0.267000000000     0.959610000000     0.040927   
H118     H      0.176140000000     0.264910000000     0.058050000000     0.0458933  
H119     H      0.211940000000     0.392710000000     0.009780000000     0.0456815  
H120     H      0.120030000000     0.392670000000     0.990510000000     0.0457706  
H121     H      0.127000000000     0.519490000000     0.660960000000     0.0440863  
H122     H      0.210600000000     0.514570000000     0.659140000000     0.0431498  
H123     H      0.225560000000     0.494940000000     0.755380000000     0.0441664  
H124     H      0.111150000000     0.500570000000     0.756470000000     0.0439413  
H125     H      0.127640000000     0.521150000000     0.850580000000     0.0432594  
H126     H      0.209700000000     0.476660000000     0.851740000000     0.0432838  
H127     H      0.124620000000     0.478290000000     0.662280000000     0.0431972  
H128     H      0.208090000000     0.473400000000     0.660720000000     0.0438654  
H129     H      0.210970000000     0.517900000000     0.851020000000     0.0433483  
H130     H      0.125770000000     0.479920000000     0.850980000000     0.0440481  
H131     H      0.122120000000     0.471790000000     0.352100000000     0.0438916  
H132     H      0.205630000000     0.477630000000     0.350550000000     0.0432169  
H133     H      0.218920000000     0.498170000000     0.255430000000     0.0440229  
H134     H      0.104560000000     0.491480000000     0.256480000000     0.044128   
H135     H      0.120910000000     0.471860000000     0.160450000000     0.0431048  
H136     H      0.202600000000     0.517050000000     0.161020000000     0.0437723  
H137     H      0.119230000000     0.512960000000     0.351810000000     0.0430077  
H138     H      0.202680000000     0.518800000000     0.349950000000     0.0440484  
H139     H      0.204350000000     0.475810000000     0.161270000000     0.0438588  
H140     H      0.118840000000     0.513080000000     0.160480000000     0.0435579  
H141     H      0.265350000000     0.203830000000     0.532340000000     0.0405195  
H142     H      0.266680000000     0.153700000000     0.431560000000     0.0460157  
H143     H      0.329550000000     0.122200000000     0.438430000000     0.0444147  
H144     H      0.329780000000     0.203640000000     0.559150000000     0.0444731  
H145     H      0.391960000000     0.209470000000     0.508730000000     0.0455381  
H146     H      0.392880000000     0.117990000000     0.485250000000     0.0459038  
H147     H      0.267130000000     0.170320000000     0.568380000000     0.0455693  
H148     H      0.265780000000     0.120420000000     0.468140000000     0.0408084  
H149     H      0.393140000000     0.141890000000     0.434820000000     0.0408369  
H150     H      0.394370000000     0.185630000000     0.559090000000     0.0408326  
H151     H      0.727200000000     0.205030000000     0.460740000000     0.0405512  
H152     H      0.725100000000     0.154320000000     0.560690000000     0.0458891  
H153     H      0.662510000000     0.122350000000     0.551710000000     0.0444547  
H154     H      0.663130000000     0.204440000000     0.431990000000     0.0444382  
H155     H      0.600290000000     0.209500000000     0.480530000000     0.0455856  
H156     H      0.599790000000     0.117900000000     0.503010000000     0.045829   
H157     H      0.726090000000     0.171790000000     0.424100000000     0.0455902  
H158     H      0.726660000000     0.121230000000     0.523780000000     0.0408441  
H159     H      0.598710000000     0.141500000000     0.553730000000     0.0409602  
H160     H      0.598720000000     0.185820000000     0.429920000000     0.0407854  
H161     H      0.266870000000     0.150280000000     0.047800000000     0.0463205  
H162     H      0.266570000000     0.202820000000     0.949250000000     0.0406065  
H163     H      0.331370000000     0.203690000000     0.924890000000     0.0444277  
H164     H      0.329900000000     0.119930000000     0.041950000000     0.0443296  
H165     H      0.392980000000     0.140540000000     0.049490000000     0.0409359  
H166     H      0.396330000000     0.186290000000     0.926980000000     0.0409233  
H167     H      0.266630000000     0.118040000000     0.009200000000     0.0407948  
H168     H      0.268940000000     0.169980000000     0.911920000000     0.0452487  
H169     H      0.392500000000     0.209240000000     0.978060000000     0.0453114  
H170     H      0.394210000000     0.117410000000     0.998290000000     0.0458634  
H171     H      0.601530000000     0.209190000000     0.009050000000     0.0455035  
H172     H      0.600320000000     0.140530000000     0.937210000000     0.041043   
H173     H      0.663760000000     0.120810000000     0.941480000000     0.0444288  
H174     H      0.663820000000     0.204170000000     0.059200000000     0.0444362  
H175     H      0.728170000000     0.204060000000     0.031740000000     0.0405562  
H176     H      0.727650000000     0.119530000000     0.970950000000     0.0409     
H177     H      0.599050000000     0.185990000000     0.060060000000     0.0408318  
H178     H      0.600450000000     0.117390000000     0.988430000000     0.0458349  
H179     H      0.726400000000     0.152060000000     0.932940000000     0.0461852  
H180     H      0.726770000000     0.171150000000     0.069050000000     0.0453426  
H181     H      0.523150000000     0.203460000000     0.648260000000     0.0438018  
H182     H      0.514620000000     0.120260000000     0.648330000000     0.0432534  
H183     H      0.493430000000     0.106920000000     0.744040000000     0.0441462  
H184     H      0.505090000000     0.220880000000     0.744040000000     0.0440951  
H185     H      0.524690000000     0.203220000000     0.839180000000     0.0436665  
H186     H      0.475140000000     0.124150000000     0.839230000000     0.0440186  
H187     H      0.482110000000     0.207730000000     0.649430000000     0.043349   
H188     H      0.473570000000     0.124420000000     0.649510000000     0.0438836  
H189     H      0.516220000000     0.120220000000     0.839100000000     0.0431752  
H190     H      0.483670000000     0.207660000000     0.839300000000     0.0434552  
H191     H      0.519040000000     0.124330000000     0.338910000000     0.0438693  
H192     H      0.510670000000     0.207710000000     0.338910000000     0.04343    
H193     H      0.488440000000     0.220920000000     0.243960000000     0.044127   
H194     H      0.499830000000     0.106930000000     0.244070000000     0.0440194  
H195     H      0.518870000000     0.124170000000     0.149170000000     0.0438979  
H196     H      0.469510000000     0.203360000000     0.148520000000     0.0437376  
H197     H      0.477960000000     0.120320000000     0.339470000000     0.0431796  
H198     H      0.469630000000     0.203480000000     0.339460000000     0.0438104  
H199     H      0.510550000000     0.207650000000     0.149010000000     0.0434662  
H200     H      0.477780000000     0.120280000000     0.148680000000     0.0431409  
H201     H      0.851360000000     0.394130000000     0.438170000000     0.0409562  
H202     H      0.783360000000     0.392530000000     0.511370000000     0.0455983  
H203     H      0.788500000000     0.329750000000     0.560060000000     0.0444422  
H204     H      0.870610000000     0.330360000000     0.440360000000     0.0444824  
H205     H      0.838720000000     0.267730000000     0.431500000000     0.0459253  
H206     H      0.821240000000     0.266840000000     0.568080000000     0.0456135  
H207     H      0.874960000000     0.393150000000     0.488900000000     0.0458373  
H208     H      0.807030000000     0.394200000000     0.561980000000     0.0408015  
H209     H      0.787980000000     0.265670000000     0.531460000000     0.0405656  
H210     H      0.871790000000     0.266240000000     0.468440000000     0.0408751  
H211     H      0.806940000000     0.598520000000     0.432680000000     0.0408077  
H212     H      0.874570000000     0.600100000000     0.506530000000     0.0459089  
H213     H      0.870180000000     0.663370000000     0.553540000000     0.0444254  
H214     H      0.788740000000     0.663070000000     0.432810000000     0.0444469  
H215     H      0.821880000000     0.725810000000     0.423760000000     0.0455662  
H216     H      0.838490000000     0.726150000000     0.560590000000     0.0459716  
H217     H      0.783080000000     0.600810000000     0.483040000000     0.0455189  
H218     H      0.850670000000     0.599720000000     0.556960000000     0.0408466  
H219     H      0.871780000000     0.727180000000     0.524040000000     0.0408063  
H220     H      0.788370000000     0.727460000000     0.459820000000     0.0404864  
H221     H      0.783670000000     0.391400000000     0.982670000000     0.0454529  
H222     H      0.852320000000     0.392680000000     0.054500000000     0.0410908  
H223     H      0.872140000000     0.329270000000     0.050180000000     0.044502   
H224     H      0.788780000000     0.329150000000     0.932450000000     0.0443612  
H225     H      0.788970000000     0.264800000000     0.959850000000     0.0405012  
H226     H      0.873500000000     0.265390000000     0.020640000000     0.0409705  
H227     H      0.806870000000     0.393940000000     0.931650000000     0.040816   
H228     H      0.875460000000     0.392610000000     0.003290000000     0.0459256  
H229     H      0.840970000000     0.266590000000     0.058660000000     0.0462519  
H230     H      0.821880000000     0.266240000000     0.922560000000     0.0453132  
H231     H      0.875200000000     0.598840000000     0.993500000000     0.0459766  
H232     H      0.806320000000     0.596660000000     0.064800000000     0.0409404  
H233     H      0.788840000000     0.661600000000     0.066850000000     0.0444692  
H234     H      0.872610000000     0.663130000000     0.949820000000     0.0443797  
H235     H      0.874440000000     0.726400000000     0.982540000000     0.040825   
H236     H      0.789650000000     0.726410000000     0.042470000000     0.0406486  
H237     H      0.852080000000     0.600040000000     0.942300000000     0.0409635  
H238     H      0.783360000000     0.600440000000     0.013710000000     0.0453625  
H239     H      0.822480000000     0.724060000000     0.079810000000     0.0452773  
H240     H      0.842200000000     0.726140000000     0.943930000000     0.0463587  
H241     H      0.872420000000     0.515290000000     0.843080000000     0.0431793  
H242     H      0.789340000000     0.523460000000     0.843240000000     0.0437127  
H243     H      0.771790000000     0.504460000000     0.747810000000     0.0440837  
H244     H      0.885800000000     0.493210000000     0.747700000000     0.0440204  
H245     H      0.872370000000     0.515020000000     0.652280000000     0.0432237  
H246     H      0.785020000000     0.482200000000     0.652880000000     0.0433994  
H247     H      0.868580000000     0.474200000000     0.842610000000     0.0439406  
H248     H      0.785100000000     0.482410000000     0.842770000000     0.0434607  
H249     H      0.789200000000     0.523260000000     0.652290000000     0.0437672  
H250     H      0.868420000000     0.473950000000     0.652880000000     0.0439163  
H251     H      0.789300000000     0.469660000000     0.343480000000     0.0437871  
H252     H      0.872480000000     0.478290000000     0.343430000000     0.0433102  
H253     H      0.885800000000     0.499550000000     0.247730000000     0.0441748  
H254     H      0.771850000000     0.487750000000     0.247720000000     0.0440835  
H255     H      0.789540000000     0.468220000000     0.152560000000     0.0436938  
H256     H      0.868540000000     0.517870000000     0.152570000000     0.0440811  
H257     H      0.784970000000     0.510690000000     0.342350000000     0.0433371  
H258     H      0.868280000000     0.519340000000     0.342290000000     0.0439344  
H259     H      0.872530000000     0.476790000000     0.152650000000     0.0432288  
H260     H      0.785040000000     0.509240000000     0.152490000000     0.0434756  
H261     H      0.265220000000     0.786590000000     0.461000000000     0.0405329  
H262     H      0.268380000000     0.838220000000     0.559650000000     0.0458429  
H263     H      0.331000000000     0.870280000000     0.548130000000     0.0445453  
H264     H      0.328890000000     0.786860000000     0.430530000000     0.0444498  
H265     H      0.392360000000     0.782390000000     0.477320000000     0.0456897  
H266     H      0.393050000000     0.874250000000     0.497160000000     0.045743   
H267     H      0.266000000000     0.819420000000     0.423510000000     0.0457446  
H268     H      0.266470000000     0.871000000000     0.522180000000     0.0408486  
H269     H      0.394960000000     0.851310000000     0.548510000000     0.040882   
H270     H      0.393130000000     0.805420000000     0.426000000000     0.0407279  
H271     H      0.727010000000     0.871970000000     0.462770000000     0.0408918  
H272     H      0.724750000000     0.822130000000     0.562910000000     0.0453949  
H273     H      0.662520000000     0.788300000000     0.551920000000     0.0444218  
H274     H      0.663680000000     0.869470000000     0.430810000000     0.0444576  
H275     H      0.599680000000     0.873190000000     0.475280000000     0.0460464  
H276     H      0.601080000000     0.781810000000     0.499670000000     0.045382   
H277     H      0.726920000000     0.838730000000     0.426110000000     0.0461522  
H278     H      0.727290000000     0.788590000000     0.527040000000     0.040571   
H279     H      0.597830000000     0.805740000000     0.549840000000     0.0409183  
H280     H      0.600300000000     0.848950000000     0.425220000000     0.0408557  
H281     H      0.393610000000     0.853810000000     0.042540000000     0.040917   
H282     H      0.391070000000     0.782640000000     0.976270000000     0.0455013  
H283     H      0.327990000000     0.786100000000     0.928210000000     0.0443768  
H284     H      0.330210000000     0.873480000000     0.039130000000     0.0443983  
H285     H      0.267800000000     0.842680000000     0.052690000000     0.0463221  
H286     H      0.264820000000     0.818890000000     0.918340000000     0.0453072  
H287     H      0.392770000000     0.875030000000     0.989510000000     0.0456978  
H288     H      0.392850000000     0.804060000000     0.923480000000     0.0406587  
H289     H      0.264160000000     0.787300000000     0.958150000000     0.0404621  
H290     H      0.265780000000     0.873820000000     0.012220000000     0.0410122  
H291     H      0.599860000000     0.780800000000     0.982250000000     0.0455952  
H292     H      0.596430000000     0.849890000000     0.052810000000     0.040794   
H293     H      0.660570000000     0.868440000000     0.055240000000     0.0444683  
H294     H      0.664470000000     0.784670000000     0.938330000000     0.0444034  
H295     H      0.727730000000     0.784270000000     0.971600000000     0.0404069  
H296     H      0.725440000000     0.868870000000     0.032120000000     0.0409732  
H297     H      0.600490000000     0.803640000000     0.930740000000     0.0406631  
H298     H      0.599730000000     0.872720000000     0.001520000000     0.045851   
H299     H      0.722950000000     0.836100000000     0.069550000000     0.0456921  
H300     H      0.727550000000     0.816880000000     0.933680000000     0.0458308  
H301     H      0.520350000000     0.870500000000     0.640000000000     0.0439516  
H302     H      0.514640000000     0.786970000000     0.641560000000     0.0432194  
H303     H      0.494220000000     0.773660000000     0.736720000000     0.0440305  
H304     H      0.500740000000     0.888030000000     0.735660000000     0.0441551  
H305     H      0.520480000000     0.871710000000     0.831640000000     0.0431172  
H306     H      0.475420000000     0.789950000000     0.831170000000     0.0437988  
H307     H      0.479180000000     0.873320000000     0.640370000000     0.0430516  
H308     H      0.473470000000     0.789880000000     0.642240000000     0.044052   
H309     H      0.516660000000     0.788270000000     0.830830000000     0.043881   
H310     H      0.479260000000     0.873720000000     0.831700000000     0.0435781  
H311     H      0.512530000000     0.866820000000     0.141220000000     0.0440759  
H312     H      0.515880000000     0.782920000000     0.140450000000     0.0433153  
H313     H      0.497490000000     0.767010000000     0.236760000000     0.0441388  
H314     H      0.491730000000     0.881420000000     0.235670000000     0.0439641  
H315     H      0.513890000000     0.867980000000     0.329920000000     0.0431892  
H316     H      0.477730000000     0.781950000000     0.332950000000     0.0431595  
H317     H      0.471300000000     0.864920000000     0.141500000000     0.0433186  
H318     H      0.474630000000     0.781590000000     0.141060000000     0.0433852  
H319     H      0.518900000000     0.784500000000     0.331480000000     0.0438718  
H320     H      0.472700000000     0.865540000000     0.331130000000     0.0440722  
N1       N      0.163590000000     0.917950000000     0.493860000000    -0.171413   
N2       N      0.163360000000     0.073350000000     0.497490000000    -0.171488   
N3       N      0.162280000000     0.918830000000     0.986550000000    -0.171116   
N4       N      0.161720000000     0.074290000000     0.979700000000    -0.171202   
N5       N      0.918540000000     0.163520000000     0.498290000000    -0.171508   
N6       N      0.073930000000     0.162680000000     0.496340000000    -0.171432   
N7       N      0.074980000000     0.165610000000     0.987260000000    -0.17134    
N8       N      0.919550000000     0.162920000000     0.991270000000    -0.171364   
N9       N      0.074240000000     0.828710000000     0.498370000000    -0.171412   
N10      N      0.918840000000     0.829440000000     0.494680000000    -0.171505   
N11      N      0.829580000000     0.918950000000     0.495840000000    -0.171508   
N12      N      0.829170000000     0.074340000000     0.493900000000    -0.171491   
N13      N      0.073660000000     0.830330000000     0.005390000000    -0.171155   
N14      N      0.918210000000     0.831230000000     0.012110000000    -0.170991   
N15      N      0.830010000000     0.073450000000     0.000440000000    -0.171084   
N16      N      0.826940000000     0.918030000000     0.004500000000    -0.171236   
N17      N      0.164180000000     0.584680000000     0.505260000000    -0.171413   
N18      N      0.163310000000     0.739800000000     0.500210000000    -0.171502   
N19      N      0.162490000000     0.251550000000     0.497140000000    -0.171523   
N20      N      0.165540000000     0.406610000000     0.505420000000    -0.171385   
N21      N      0.161860000000     0.741010000000     0.005870000000    -0.171104   
N22      N      0.163900000000     0.585750000000     0.009040000000    -0.171112   
N23      N      0.165860000000     0.407500000000     0.001370000000    -0.171255   
N24      N      0.166380000000     0.252430000000     0.989000000000    -0.171254   
N25      N      0.168440000000     0.498780000000     0.872390000000    -0.171484   
N26      N      0.167340000000     0.496170000000     0.639500000000    -0.17139    
N27      N      0.161750000000     0.494560000000     0.139510000000    -0.171598   
N28      N      0.162630000000     0.495380000000     0.372370000000    -0.171562   
N29      N      0.407220000000     0.163930000000     0.496490000000    -0.171383   
N30      N      0.252100000000     0.162080000000     0.500100000000    -0.171495   
N31      N      0.585240000000     0.163790000000     0.491930000000    -0.171445   
N32      N      0.740400000000     0.163160000000     0.492650000000    -0.17162    
N33      N      0.408140000000     0.163720000000     0.989370000000    -0.17133    
N34      N      0.253080000000     0.160410000000     0.979360000000    -0.171345   
N35      N      0.741400000000     0.161820000000     0.000880000000    -0.171178   
N36      N      0.586190000000     0.163520000000     0.998090000000    -0.171257   
N37      N      0.499740000000     0.163820000000     0.860480000000    -0.17148    
N38      N      0.498040000000     0.163990000000     0.627610000000    -0.171464   
N39      N      0.494460000000     0.163870000000     0.127570000000    -0.171408   
N40      N      0.494550000000     0.163980000000     0.360460000000    -0.171388   
N41      N      0.829870000000     0.252480000000     0.499570000000    -0.171564   
N42      N      0.829050000000     0.407640000000     0.499930000000    -0.171441   
N43      N      0.830090000000     0.740790000000     0.492090000000    -0.171612   
N44      N      0.828660000000     0.585650000000     0.495250000000    -0.171486   
N45      N      0.831220000000     0.251600000000     0.990710000000    -0.171344   
N46      N      0.829320000000     0.406810000000     0.993640000000    -0.171235   
N47      N      0.832060000000     0.739920000000     0.012380000000    -0.171249   
N48      N      0.828900000000     0.584860000000     0.002420000000    -0.171166   
N49      N      0.828730000000     0.498370000000     0.631300000000    -0.171432   
N50      N      0.828850000000     0.498560000000     0.864200000000    -0.171371   
N51      N      0.828900000000     0.493230000000     0.131290000000    -0.171458   
N52      N      0.828730000000     0.494810000000     0.364160000000    -0.171464   
N53      N      0.407510000000     0.828250000000     0.486890000000    -0.17143    
N54      N      0.252390000000     0.828820000000     0.492160000000    -0.171465   
N55      N      0.585590000000     0.827170000000     0.486750000000    -0.171309   
N56      N      0.740640000000     0.830410000000     0.495080000000    -0.17156    
N57      N      0.251480000000     0.830540000000     0.986290000000    -0.171191   
N58      N      0.406740000000     0.828570000000     0.983170000000    -0.171392   
N59      N      0.740060000000     0.826660000000     0.002710000000    -0.171206   
N60      N      0.584990000000     0.826850000000     0.990690000000    -0.171306   
N61      N      0.497860000000     0.830840000000     0.852630000000    -0.171549   
N62      N      0.496810000000     0.829950000000     0.619770000000    -0.171546   
N63      N      0.496060000000     0.825230000000     0.352650000000    -0.171432   
N64      N      0.493730000000     0.824140000000     0.119750000000    -0.171513   
Ni1      Ni     0.496090000000     0.854720000000     0.988460000000     1.00386    
Ni2      Ni     0.495670000000     0.800280000000     0.983890000000     0.997669   
Ni3      Ni     0.496720000000     0.854780000000     0.485190000000     1.00028    
Ni4      Ni     0.496370000000     0.800420000000     0.487260000000     0.997432   
Ni5      Ni     0.856030000000     0.495910000000     0.997740000000     1.00193    
Ni6      Ni     0.801680000000     0.495770000000     0.997760000000     0.993758   
Ni7      Ni     0.855870000000     0.496710000000     0.497730000000     1.00168    
Ni8      Ni     0.801520000000     0.496580000000     0.497730000000     0.995545   
Ni9      Ni     0.497120000000     0.136700000000     0.994030000000     1.00191    
Ni10     Ni     0.497200000000     0.191050000000     0.994010000000     0.993757   
Ni11     Ni     0.496210000000     0.136850000000     0.494050000000     1.0013     
Ni12     Ni     0.496260000000     0.191190000000     0.494040000000     0.995555   
Ni13     Ni     0.137870000000     0.496360000000     0.003680000000     1.00414    
Ni14     Ni     0.192310000000     0.496850000000     0.008250000000     0.99775    
Ni15     Ni     0.137800000000     0.495430000000     0.506950000000     1.00029    
Ni16     Ni     0.192150000000     0.495860000000     0.504880000000     0.997434   
Ni17     Ni     0.830300000000     0.827890000000     0.967680000000     1.00467    
Ni18     Ni     0.827800000000     0.829910000000     0.048980000000     0.990661   
Ni19     Ni     0.829360000000     0.830460000000     0.453730000000     1.00036    
Ni20     Ni     0.830000000000     0.829150000000     0.535180000000     0.999133   
Ni21     Ni     0.831640000000     0.163840000000     0.036470000000     0.998264   
Ni22     Ni     0.829180000000     0.161350000000     0.955180000000     0.998191   
Ni23     Ni     0.830250000000     0.164340000000     0.455390000000     1.00002    
Ni24     Ni     0.828550000000     0.162630000000     0.536800000000     1.0003     
Ni25     Ni     0.165120000000     0.162200000000     0.024070000000     1.00478    
Ni26     Ni     0.163090000000     0.164680000000     0.942780000000     0.990434   
Ni27     Ni     0.162420000000     0.162820000000     0.538460000000     1.00048    
Ni28     Ni     0.163730000000     0.162190000000     0.457000000000     0.998998   
Ni29     Ni     0.164780000000     0.832010000000     0.036460000000     0.996882   
Ni30     Ni     0.160500000000     0.827690000000     0.955590000000     0.996348   
Ni31     Ni     0.162470000000     0.827870000000     0.455460000000     0.999433   
Ni32     Ni     0.164310000000     0.829740000000     0.536830000000     0.999748   
O1       O      0.494610000000     0.851000000000     0.053290000000    -0.452905   
O2       O      0.497520000000     0.854850000000     0.922410000000    -0.447043   
O3       O      0.452390000000     0.853300000000     0.987170000000    -0.450652   
O4       O      0.539740000000     0.852480000000     0.991470000000    -0.450417   
O5       O      0.539510000000     0.801770000000     0.984480000000    -0.447906   
O6       O      0.451880000000     0.802510000000     0.981670000000    -0.447794   
O7       O      0.496560000000     0.803990000000     0.919060000000    -0.452508   
O8       O      0.494820000000     0.800140000000     0.049960000000    -0.446374   
O9       O      0.494220000000     0.851660000000     0.419880000000    -0.449501   
O10      O      0.499180000000     0.854210000000     0.550690000000    -0.448756   
O11      O      0.540330000000     0.852510000000     0.480630000000    -0.449371   
O12      O      0.453090000000     0.853230000000     0.490020000000    -0.449278   
O13      O      0.452700000000     0.802560000000     0.482700000000    -0.448339   
O14      O      0.540060000000     0.802140000000     0.491740000000    -0.448177   
O15      O      0.494100000000     0.803570000000     0.552580000000    -0.449244   
O16      O      0.498660000000     0.800960000000     0.421730000000    -0.448165   
O17      O      0.854190000000     0.497020000000     0.063240000000    -0.449404   
O18      O      0.854180000000     0.494800000000     0.932240000000    -0.449374   
O19      O      0.854030000000     0.539580000000     0.995200000000    -0.449809   
O20      O      0.854240000000     0.452230000000     0.000320000000    -0.449607   
O21      O      0.803730000000     0.452180000000     0.990810000000    -0.446813   
O22      O      0.803520000000     0.539360000000     0.004740000000    -0.446773   
O23      O      0.803510000000     0.499750000000     0.932470000000    -0.447928   
O24      O      0.803560000000     0.491800000000     0.063040000000    -0.448195   
O25      O      0.854010000000     0.498420000000     0.432250000000    -0.449342   
O26      O      0.854030000000     0.494980000000     0.563200000000    -0.449286   
O27      O      0.854060000000     0.453060000000     0.494170000000    -0.449814   
O28      O      0.853860000000     0.540350000000     0.501270000000    -0.4498     
O29      O      0.803370000000     0.540200000000     0.491550000000    -0.447726   
O30      O      0.803570000000     0.452980000000     0.503870000000    -0.448005   
O31      O      0.803370000000     0.500050000000     0.563080000000    -0.448199   
O32      O      0.803380000000     0.493120000000     0.432380000000    -0.448233   
O33      O      0.498240000000     0.138550000000     0.059540000000    -0.449255   
O34      O      0.496000000000     0.138530000000     0.928530000000    -0.449503   
O35      O      0.540800000000     0.138540000000     0.991440000000    -0.449723   
O36      O      0.453450000000     0.138650000000     0.996580000000    -0.449876   
O37      O      0.453610000000     0.189150000000     0.987050000000    -0.446991   
O38      O      0.540790000000     0.189050000000     0.000940000000    -0.446758   
O39      O      0.501160000000     0.189170000000     0.928720000000    -0.448164   
O40      O      0.493230000000     0.189210000000     0.059300000000    -0.447992   
O41      O      0.497950000000     0.138690000000     0.428570000000    -0.449123   
O42      O      0.494470000000     0.138700000000     0.559530000000    -0.449242   
O43      O      0.452560000000     0.138800000000     0.490480000000    -0.449757   
O44      O      0.539850000000     0.138720000000     0.497630000000    -0.449962   
O45      O      0.539870000000     0.189210000000     0.487930000000    -0.447845   
O46      O      0.452650000000     0.189290000000     0.500190000000    -0.447642   
O47      O      0.499710000000     0.189340000000     0.559390000000    -0.448272   
O48      O      0.492810000000     0.189340000000     0.428690000000    -0.448245   
O49      O      0.137740000000     0.494910000000     0.069720000000    -0.447228   
O50      O      0.141580000000     0.497860000000     0.938850000000    -0.453031   
O51      O      0.140160000000     0.452710000000     0.000640000000    -0.45018    
O52      O      0.139220000000     0.540060000000     0.005010000000    -0.450473   
O53      O      0.190020000000     0.540640000000     0.010500000000    -0.447667   
O54      O      0.190870000000     0.453010000000     0.007630000000    -0.447971   
O55      O      0.192450000000     0.497720000000     0.942180000000    -0.446384   
O56      O      0.188590000000     0.495940000000     0.073080000000    -0.452532   
O57      O      0.140910000000     0.497940000000     0.572260000000    -0.449549   
O58      O      0.138370000000     0.492970000000     0.441460000000    -0.448735   
O59      O      0.140130000000     0.451820000000     0.511520000000    -0.449383   
O60      O      0.139280000000     0.539060000000     0.502120000000    -0.44936    
O61      O      0.189950000000     0.539530000000     0.509440000000    -0.448208   
O62      O      0.190500000000     0.452170000000     0.500410000000    -0.448183   
O63      O      0.189000000000     0.498130000000     0.439570000000    -0.449316   
O64      O      0.191610000000     0.493570000000     0.570410000000    -0.448202   
O65      O      0.786640000000     0.823550000000     0.968040000000    -0.449354   
O66      O      0.873480000000     0.831710000000     0.972760000000    -0.45299    
O67      O      0.834600000000     0.784590000000     0.972850000000    -0.450943   
O68      O      0.826610000000     0.871690000000     0.968250000000    -0.447888   
O69      O      0.829130000000     0.873410000000     0.044400000000    -0.449028   
O70      O      0.826000000000     0.785980000000     0.047970000000    -0.446267   
O71      O      0.871910000000     0.828640000000     0.048860000000    -0.443572   
O72      O      0.784230000000     0.831730000000     0.043210000000    -0.447165   
O73      O      0.785850000000     0.833510000000     0.457030000000    -0.450028   
O74      O      0.873260000000     0.828080000000     0.456300000000    -0.447088   
O75      O      0.826330000000     0.786670000000     0.455500000000    -0.448629   
O76      O      0.831720000000     0.873860000000     0.457370000000    -0.451672   
O77      O      0.827780000000     0.873080000000     0.533420000000    -0.446821   
O78      O      0.832960000000     0.785660000000     0.531090000000    -0.449844   
O79      O      0.873450000000     0.831400000000     0.532420000000    -0.451159   
O80      O      0.786200000000     0.826290000000     0.532510000000    -0.448332   
O81      O      0.787770000000     0.166810000000     0.035950000000    -0.447006   
O82      O      0.875040000000     0.161380000000     0.031460000000    -0.450168   
O83      O      0.834640000000     0.207230000000     0.030830000000    -0.449773   
O84      O      0.829210000000     0.119930000000     0.036360000000    -0.446751   
O85      O      0.831610000000     0.117950000000     0.960220000000    -0.450224   
O86      O      0.826230000000     0.205220000000     0.955680000000    -0.447187   
O87      O      0.873090000000     0.163750000000     0.955320000000    -0.446876   
O88      O      0.785790000000     0.158380000000     0.960800000000    -0.449779   
O89      O      0.833230000000     0.207820000000     0.460070000000    -0.449685   
O90      O      0.827930000000     0.120380000000     0.456620000000    -0.446433   
O91      O      0.786470000000     0.167290000000     0.456750000000    -0.44913    
O92      O      0.873610000000     0.161980000000     0.459420000000    -0.452031   
O93      O      0.872510000000     0.164870000000     0.535570000000    -0.446555   
O94      O      0.785060000000     0.159740000000     0.532130000000    -0.44968    
O95      O      0.830820000000     0.119270000000     0.532770000000    -0.452079   
O96      O      0.825680000000     0.206410000000     0.535460000000    -0.449067   
O97      O      0.169480000000     0.205860000000     0.023690000000    -0.449189   
O98      O      0.161280000000     0.119030000000     0.019020000000    -0.452959   
O99      O      0.208420000000     0.157880000000     0.018900000000    -0.450732   
O100     O      0.121320000000     0.165920000000     0.023510000000    -0.447691   
O101     O      0.119600000000     0.163380000000     0.947370000000    -0.449173   
O102     O      0.207030000000     0.166460000000     0.943770000000    -0.446204   
O103     O      0.164340000000     0.120570000000     0.942930000000    -0.44364    
O104     O      0.161290000000     0.208250000000     0.948520000000    -0.447048   
O105     O      0.159390000000     0.206330000000     0.535180000000    -0.449914   
O106     O      0.164780000000     0.118930000000     0.535880000000    -0.447154   
O107     O      0.206220000000     0.165830000000     0.536690000000    -0.448582   
O108     O      0.119020000000     0.160490000000     0.534820000000    -0.451682   
O109     O      0.119810000000     0.164440000000     0.458770000000    -0.44699    
O110     O      0.207230000000     0.159220000000     0.461090000000    -0.449708   
O111     O      0.161460000000     0.118740000000     0.459750000000    -0.451154   
O112     O      0.166620000000     0.205990000000     0.459690000000    -0.448136   
O113     O      0.208000000000     0.835100000000     0.028310000000    -0.449521   
O114     O      0.120920000000     0.829330000000     0.039020000000    -0.446127   
O115     O      0.168010000000     0.788150000000     0.038140000000    -0.446408   
O116     O      0.161820000000     0.875240000000     0.029030000000    -0.449777   
O117     O      0.163220000000     0.871550000000     0.952980000000    -0.446008   
O118     O      0.157360000000     0.784470000000     0.963790000000    -0.449644   
O119     O      0.117260000000     0.830710000000     0.962970000000    -0.449868   
O120     O      0.204350000000     0.824410000000     0.953970000000    -0.446392   
O121     O      0.159470000000     0.784350000000     0.460380000000    -0.448608   
O122     O      0.164840000000     0.871880000000     0.456520000000    -0.445741   
O123     O      0.206210000000     0.824850000000     0.456630000000    -0.449333   
O124     O      0.119160000000     0.830280000000     0.459590000000    -0.452568   
O125     O      0.120300000000     0.827410000000     0.535730000000    -0.445789   
O126     O      0.207830000000     0.832690000000     0.531950000000    -0.448636   
O127     O      0.161940000000     0.873040000000     0.532660000000    -0.452714   
O128     O      0.167280000000     0.785990000000     0.535690000000    -0.44945    


