data_structure

_audit_creation_method RASPA-1.0
_audit_creation_date 2023-5-23
_audit_author_name 'Poobodin Mano'

_cell_length_a    58.3811
_cell_length_b    58.3719
_cell_length_c    29.2271
_cell_angle_alpha 90
_cell_angle_beta  90
_cell_angle_gamma 90
_cell_volume      99600.6

_symmetry_cell_setting          triclinic
_symmetry_space_group_name_Hall 'P 1'
_symmetry_space_group_name_H-M  'P 1'
_symmetry_Int_Tables_number     1

_symmetry_equiv_pos_as_xyz 'x,y,z'

loop_
_atom_site_label
_atom_site_type_symbol
_atom_site_fract_x
_atom_site_fract_y
_atom_site_fract_z
_atom_site_charge
C1       C      0.368740000000     0.915220000000     0.987640000000     0.432135   
C2       C      0.369390000000     0.827980000000     0.987410000000     0.432817   
C3       C      0.367430000000     0.871540000000     0.074670000000     0.431635   
C4       C      0.370640000000     0.871660000000     0.900450000000     0.431797   
C5       C      0.368910000000     0.915940000000     0.487790000000     0.431987   
C6       C      0.368970000000     0.828710000000     0.487780000000     0.432649   
C7       C      0.370580000000     0.872300000000     0.574700000000     0.432111   
C8       C      0.367320000000     0.872300000000     0.400480000000     0.431618   
C9       C      0.369000000000     0.078300000000     0.990840000000     0.431898   
C10      C      0.369830000000     0.165470000000     0.997600000000     0.43252    
C11      C      0.367830000000     0.123510000000     0.906940000000     0.43157    
C12      C      0.370970000000     0.120320000000     0.081090000000     0.431727   
C13      C      0.369120000000     0.078980000000     0.495560000000     0.431612   
C14      C      0.369900000000     0.166210000000     0.491890000000     0.432422   
C15      C      0.371010000000     0.121630000000     0.406800000000     0.431607   
C16      C      0.367910000000     0.123560000000     0.581030000000     0.431321   
C17      C      0.914820000000     0.623160000000     0.985490000000     0.432177   
C18      C      0.827620000000     0.622110000000     0.981540000000     0.433053   
C19      C      0.870270000000     0.622960000000     0.070690000000     0.432051   
C20      C      0.872090000000     0.622330000000     0.896420000000     0.432183   
C21      C      0.914670000000     0.622850000000     0.483370000000     0.432011   
C22      C      0.827420000000     0.622160000000     0.484270000000     0.43257    
C23      C      0.871280000000     0.622860000000     0.570740000000     0.431958   
C24      C      0.870750000000     0.622210000000     0.396430000000     0.431766   
C25      C      0.077820000000     0.623790000000     0.994430000000     0.431934   
C26      C      0.165030000000     0.623280000000     0.998120000000     0.433023   
C27      C      0.122300000000     0.623860000000     0.909080000000     0.431686   
C28      C      0.120610000000     0.623290000000     0.083350000000     0.432266   
C29      C      0.077670000000     0.623460000000     0.496050000000     0.431944   
C30      C      0.164920000000     0.623890000000     0.495940000000     0.432343   
C31      C      0.121230000000     0.624030000000     0.409010000000     0.432394   
C32      C      0.121440000000     0.623270000000     0.583310000000     0.431801   
C33      C      0.624640000000     0.078180000000     0.996150000000     0.431611   
C34      C      0.623850000000     0.165430000000     0.998670000000     0.43206    
C35      C      0.622750000000     0.121120000000     0.084270000000     0.431973   
C36      C      0.625810000000     0.122520000000     0.910030000000     0.431223   
C37      C      0.624600000000     0.078280000000     0.499920000000     0.431483   
C38      C      0.623560000000     0.165500000000     0.493750000000     0.432271   
C39      C      0.625670000000     0.123350000000     0.584130000000     0.43148    
C40      C      0.622590000000     0.120450000000     0.409960000000     0.431658   
C41      C      0.624350000000     0.915180000000     0.008710000000     0.43192    
C42      C      0.623260000000     0.827920000000     0.006590000000     0.432273   
C43      C      0.624160000000     0.872070000000     0.920800000000     0.432155   
C44      C      0.623510000000     0.870970000000     0.095100000000     0.431966   
C45      C      0.624390000000     0.915150000000     0.506010000000     0.43178    
C46      C      0.623180000000     0.827900000000     0.510240000000     0.432202   
C47      C      0.624130000000     0.870500000000     0.420870000000     0.431581   
C48      C      0.623530000000     0.872490000000     0.595140000000     0.432351   
C49      C      0.372670000000     0.327980000000     0.012870000000     0.432278   
C50      C      0.370290000000     0.415090000000     0.008490000000     0.43143    
C51      C      0.327850000000     0.370410000000     0.008730000000     0.432145   
C52      C      0.414980000000     0.372660000000     0.012120000000     0.431252   
C53      C      0.371410000000     0.328980000000     0.493170000000     0.431984   
C54      C      0.370790000000     0.415960000000     0.504660000000     0.431047   
C55      C      0.327570000000     0.372200000000     0.504600000000     0.431985   
C56      C      0.414530000000     0.372900000000     0.493040000000     0.431057   
C57      C      0.371060000000     0.665200000000     0.993090000000     0.43213    
C58      C      0.371520000000     0.578130000000     0.001470000000     0.431518   
C59      C      0.327760000000     0.621350000000     0.001080000000     0.432379   
C60      C      0.414850000000     0.621960000000     0.994010000000     0.43111    
C61      C      0.371980000000     0.666170000000     0.504420000000     0.432913   
C62      C      0.370350000000     0.579000000000     0.511520000000     0.432022   
C63      C      0.327670000000     0.623470000000     0.502910000000     0.43271    
C64      C      0.414770000000     0.621830000000     0.513390000000     0.431588   
C65      C      0.664840000000     0.371960000000     0.985890000000     0.431545   
C66      C      0.577930000000     0.371730000000     0.999140000000     0.430776   
C67      C      0.621500000000     0.328240000000     0.998100000000     0.431365   
C68      C      0.621070000000     0.415240000000     0.986540000000     0.430993   
C69      C      0.664640000000     0.370450000000     0.487690000000     0.432043   
C70      C      0.577530000000     0.372850000000     0.483720000000     0.431381   
C71      C      0.619770000000     0.328080000000     0.481400000000     0.431741   
C72      C      0.622310000000     0.415150000000     0.489810000000     0.431011   
C73      C      0.622670000000     0.665370000000     0.986790000000     0.431761   
C74      C      0.620140000000     0.578300000000     0.978900000000     0.431033   
C75      C      0.664900000000     0.620590000000     0.978700000000     0.432265   
C76      C      0.577860000000     0.623020000000     0.986070000000     0.431312   
C77      C      0.620300000000     0.665150000000     0.514470000000     0.43182    
C78      C      0.622390000000     0.578120000000     0.504330000000     0.430824   
C79      C      0.664860000000     0.622710000000     0.503770000000     0.431742   
C80      C      0.577870000000     0.620510000000     0.514570000000     0.43065    
C81      C      0.077780000000     0.368440000000     0.003420000000     0.431798   
C82      C      0.165030000000     0.369170000000     0.003310000000     0.432757   
C83      C      0.121550000000     0.367250000000     0.090560000000     0.431259   
C84      C      0.121290000000     0.370360000000     0.916320000000     0.431867   
C85      C      0.077630000000     0.368520000000     0.501030000000     0.431976   
C86      C      0.164820000000     0.369660000000     0.505910000000     0.432511   
C87      C      0.120120000000     0.370570000000     0.590580000000     0.43159    
C88      C      0.122360000000     0.367500000000     0.416390000000     0.431647   
C89      C      0.914780000000     0.368400000000     0.991620000000     0.431715   
C90      C      0.827580000000     0.369460000000     0.986050000000     0.432051   
C91      C      0.872470000000     0.370390000000     0.901780000000     0.431648   
C92      C      0.869870000000     0.367340000000     0.075950000000     0.431684   
C93      C      0.914680000000     0.368310000000     0.488400000000     0.432074   
C94      C      0.827450000000     0.368910000000     0.489740000000     0.432667   
C95      C      0.870640000000     0.367070000000     0.401810000000     0.431407   
C96      C      0.871470000000     0.370140000000     0.576050000000     0.431972   
C97      C      0.873980000000     0.350280000000     0.826970000000    -0.0203127  
C98      C      0.871060000000     0.391720000000     0.650130000000    -0.0203919  
C99      C      0.872940000000     0.350120000000     0.650950000000    -0.0202052  
C100     C      0.872930000000     0.359270000000     0.698140000000     0.0136153  
C101     C      0.871860000000     0.382990000000     0.697910000000     0.0127103  
C102     C      0.871550000000     0.395580000000     0.738850000000    -0.0651205  
C103     C      0.872110000000     0.391880000000     0.827600000000    -0.0203561  
C104     C      0.873760000000     0.346800000000     0.738970000000    -0.0661862  
C105     C      0.872390000000     0.383070000000     0.779850000000     0.0127048  
C106     C      0.873460000000     0.359340000000     0.779740000000     0.0136563  
C107     C      0.870460000000     0.387380000000     0.150910000000    -0.0203194  
C108     C      0.868960000000     0.345620000000     0.327590000000    -0.0203569  
C109     C      0.871330000000     0.387190000000     0.326960000000    -0.0203707  
C110     C      0.870470000000     0.378150000000     0.279720000000     0.0136545  
C111     C      0.869120000000     0.354440000000     0.279830000000     0.0126011  
C112     C      0.868200000000     0.341940000000     0.238800000000    -0.0650083  
C113     C      0.868100000000     0.345810000000     0.150040000000    -0.0203486  
C114     C      0.870960000000     0.390690000000     0.238950000000    -0.066242   
C115     C      0.868680000000     0.354530000000     0.197850000000     0.0126028  
C116     C      0.870020000000     0.378240000000     0.198100000000     0.0136415  
C117     C      0.040440000000     0.347460000000     0.497580000000    -0.0202328  
C118     C      0.951990000000     0.389020000000     0.489880000000    -0.0203145  
C119     C      0.951960000000     0.347380000000     0.489040000000    -0.020209   
C120     C      0.975740000000     0.356310000000     0.491180000000     0.0130575  
C121     C      0.975720000000     0.380050000000     0.491660000000     0.0134204  
C122     C      0.996140000000     0.392610000000     0.494000000000    -0.0657644  
C123     C      0.040280000000     0.389100000000     0.498450000000    -0.0202527  
C124     C      0.996210000000     0.343780000000     0.493000000000    -0.0653671  
C125     C      0.016590000000     0.380090000000     0.495790000000     0.0134107  
C126     C      0.016650000000     0.356340000000     0.495300000000     0.0130729  
C127     C      0.120600000000     0.392070000000     0.664750000000    -0.0202137  
C128     C      0.120000000000     0.350330000000     0.841410000000    -0.0203316  
C129     C      0.121800000000     0.391930000000     0.842230000000    -0.0202171  
C130     C      0.121020000000     0.383200000000     0.794450000000     0.0126024  
C131     C      0.119980000000     0.359480000000     0.794230000000     0.0137088  
C132     C      0.119140000000     0.347010000000     0.753400000000    -0.0662546  
C133     C      0.118790000000     0.350470000000     0.665400000000    -0.0203923  
C134     C      0.121270000000     0.395790000000     0.753500000000    -0.0650487  
C135     C      0.119370000000     0.359550000000     0.712630000000     0.0137397  
C136     C      0.120410000000     0.383270000000     0.712510000000     0.0126055  
C137     C      0.121600000000     0.387530000000     0.341450000000    -0.0202297  
C138     C      0.123130000000     0.345780000000     0.164760000000    -0.0204469  
C139     C      0.120640000000     0.387350000000     0.165410000000    -0.0203811  
C140     C      0.121510000000     0.378300000000     0.212640000000     0.0136335  
C141     C      0.122930000000     0.354600000000     0.212530000000     0.0126554  
C142     C      0.123910000000     0.342100000000     0.253550000000    -0.0650949  
C143     C      0.124060000000     0.345970000000     0.342310000000    -0.020333   
C144     C      0.121010000000     0.390840000000     0.253410000000    -0.0662095  
C145     C      0.123410000000     0.354690000000     0.294500000000     0.0126347  
C146     C      0.122010000000     0.378390000000     0.294250000000     0.0135865  
C147     C      0.040440000000     0.389090000000     0.001770000000    -0.0202452  
C148     C      0.952010000000     0.347390000000     0.995010000000    -0.0203524  
C149     C      0.952110000000     0.389030000000     0.994140000000    -0.0204069  
C150     C      0.975820000000     0.380050000000     0.996540000000     0.0134102  
C151     C      0.975800000000     0.356310000000     0.997030000000     0.013087   
C152     C      0.996270000000     0.343780000000     0.999090000000    -0.0654506  
C153     C      0.040530000000     0.347450000000     0.002630000000    -0.0201747  
C154     C      0.996260000000     0.392600000000     0.998080000000    -0.0657601  
C155     C      0.016730000000     0.356340000000     0.000670000000     0.0131259  
C156     C      0.016710000000     0.380080000000     0.000180000000     0.0134343  
C157     C      0.702150000000     0.383350000000     0.456960000000    -0.0208193  
C158     C      0.790050000000     0.352320000000     0.514150000000    -0.0205842  
C159     C      0.790430000000     0.386310000000     0.466070000000    -0.020673   
C160     C      0.766610000000     0.378800000000     0.475170000000     0.0139455  
C161     C      0.766360000000     0.360420000000     0.505180000000     0.0134259  
C162     C      0.745770000000     0.351980000000     0.523290000000    -0.0655395  
C163     C      0.701530000000     0.357060000000     0.521500000000    -0.020687   
C164     C      0.746320000000     0.387640000000     0.456680000000    -0.0659869  
C165     C      0.725450000000     0.361930000000     0.507110000000     0.0133996  
C166     C      0.725750000000     0.378150000000     0.472490000000     0.0139237  
C167     C      0.622500000000     0.453320000000     0.451630000000    -0.0203089  
C168     C      0.623280000000     0.539920000000     0.542150000000    -0.0203513  
C169     C      0.622960000000     0.541800000000     0.459070000000    -0.0204066  
C170     C      0.623180000000     0.517620000000     0.474860000000     0.013131   
C171     C      0.623500000000     0.516580000000     0.522230000000     0.0131912  
C172     C      0.623790000000     0.495590000000     0.545540000000    -0.0657036  
C173     C      0.623760000000     0.451520000000     0.534680000000    -0.0203899  
C174     C      0.622860000000     0.497690000000     0.448120000000    -0.0655709  
C175     C      0.623640000000     0.475670000000     0.518810000000     0.0133253  
C176     C      0.623050000000     0.476690000000     0.471450000000     0.0129934  
C177     C      0.701600000000     0.358980000000     0.950630000000    -0.0207677  
C178     C      0.790610000000     0.387650000000     0.007140000000    -0.0204148  
C179     C      0.790140000000     0.353080000000     0.960760000000    -0.0206862  
C180     C      0.766490000000     0.361750000000     0.968130000000     0.0132351  
C181     C      0.766780000000     0.380540000000     0.997140000000     0.0138925  
C182     C      0.746520000000     0.389980000000     0.014400000000    -0.065972   
C183     C      0.702400000000     0.386280000000     0.013440000000    -0.0207876  
C184     C      0.745870000000     0.353370000000     0.949870000000    -0.0653818  
C185     C      0.725930000000     0.380660000000     0.998380000000     0.0139698  
C186     C      0.725580000000     0.363910000000     0.964770000000     0.0132593  
C187     C      0.618610000000     0.541190000000     0.019750000000    -0.0204184  
C188     C      0.621420000000     0.451730000000     0.941270000000    -0.0202215  
C189     C      0.619800000000     0.453270000000     0.024320000000    -0.0204516  
C190     C      0.619750000000     0.476620000000     0.004750000000     0.0141656  
C191     C      0.620730000000     0.475910000000     0.957390000000     0.0121238  
C192     C      0.621050000000     0.496130000000     0.931220000000    -0.0646781  
C193     C      0.620580000000     0.540770000000     0.936680000000    -0.0203779  
C194     C      0.618930000000     0.497340000000     0.028620000000    -0.0666311  
C195     C      0.620260000000     0.516980000000     0.955230000000     0.0122166  
C196     C      0.619180000000     0.517420000000     0.002590000000     0.0141119  
C197     C      0.452430000000     0.620050000000     0.474480000000    -0.020348   
C198     C      0.540800000000     0.620990000000     0.558330000000    -0.020432   
C199     C      0.540330000000     0.618970000000     0.475270000000    -0.0204358  
C200     C      0.516750000000     0.619500000000     0.493480000000     0.0140373  
C201     C      0.516810000000     0.620670000000     0.540840000000     0.0123014  
C202     C      0.496220000000     0.621590000000     0.565740000000    -0.0646875  
C203     C      0.451690000000     0.622110000000     0.557530000000    -0.0203595  
C204     C      0.496400000000     0.619170000000     0.468350000000    -0.0665558  
C205     C      0.475720000000     0.621230000000     0.540450000000     0.0123036  
C206     C      0.475950000000     0.620050000000     0.493090000000     0.0140183  
C207     C      0.452610000000     0.622330000000     0.033450000000    -0.0201238  
C208     C      0.540080000000     0.623360000000     0.946690000000    -0.0202803  
C209     C      0.541080000000     0.623840000000     0.029830000000    -0.020318   
C210     C      0.517080000000     0.623570000000     0.012980000000     0.0132816  
C211     C      0.516550000000     0.623420000000     0.965560000000     0.0130867  
C212     C      0.495830000000     0.623160000000     0.941330000000    -0.0656278  
C213     C      0.451630000000     0.622660000000     0.950300000000    -0.0204224  
C214     C      0.496880000000     0.623250000000     0.038840000000    -0.0656499  
C215     C      0.475620000000     0.622970000000     0.967180000000     0.0132264  
C216     C      0.476150000000     0.622900000000     0.014600000000     0.013098   
C217     C      0.290860000000     0.359040000000     0.539740000000    -0.0206816  
C218     C      0.201750000000     0.387750000000     0.484110000000    -0.0207526  
C219     C      0.202310000000     0.353300000000     0.530870000000    -0.0205428  
C220     C      0.225950000000     0.361870000000     0.522980000000     0.0131522  
C221     C      0.225590000000     0.380570000000     0.493740000000     0.0141933  
C222     C      0.245820000000     0.389900000000     0.476050000000    -0.0662399  
C223     C      0.289950000000     0.386110000000     0.476530000000    -0.0208661  
C224     C      0.246600000000     0.353500000000     0.541050000000    -0.0653019  
C225     C      0.266440000000     0.380560000000     0.491870000000     0.0141746  
C226     C      0.266860000000     0.363930000000     0.525710000000     0.0131844  
C227     C      0.450950000000     0.372430000000     0.447680000000    -0.020301   
C228     C      0.540600000000     0.374470000000     0.525450000000    -0.0203888  
C229     C      0.539860000000     0.372610000000     0.442380000000    -0.0202944  
C230     C      0.516170000000     0.373100000000     0.461220000000     0.012511   
C231     C      0.516750000000     0.374150000000     0.508580000000     0.0138205  
C232     C      0.496720000000     0.374590000000     0.534770000000    -0.0663808  
C233     C      0.452610000000     0.374140000000     0.530720000000    -0.0203818  
C234     C      0.495280000000     0.372480000000     0.437380000000    -0.0649174  
C235     C      0.475940000000     0.373980000000     0.511050000000     0.0138268  
C236     C      0.475140000000     0.372970000000     0.463690000000     0.0124998  
C237     C      0.369620000000     0.452500000000     0.549720000000    -0.020259   
C238     C      0.370910000000     0.541860000000     0.470640000000    -0.0202245  
C239     C      0.368920000000     0.541520000000     0.553700000000    -0.0202888  
C240     C      0.369410000000     0.517720000000     0.535280000000     0.0123851  
C241     C      0.370500000000     0.518110000000     0.487920000000     0.0139196  
C242     C      0.371190000000     0.497990000000     0.462040000000    -0.066551   
C243     C      0.371350000000     0.453940000000     0.466670000000    -0.020476   
C244     C      0.369020000000     0.496900000000     0.559450000000    -0.0648216  
C245     C      0.370760000000     0.477310000000     0.486060000000     0.0140444  
C246     C      0.369730000000     0.476660000000     0.533430000000     0.0123423  
C247     C      0.202540000000     0.352660000000     0.979390000000    -0.0208254  
C248     C      0.290210000000     0.382930000000     0.039710000000    -0.0208803  
C249     C      0.291070000000     0.357150000000     0.974370000000    -0.0208162  
C250     C      0.267110000000     0.361950000000     0.988460000000     0.013424   
C251     C      0.266670000000     0.377910000000     0.023570000000     0.0139825  
C252     C      0.246030000000     0.387400000000     0.039070000000    -0.0659887  
C253     C      0.201950000000     0.386360000000     0.028290000000    -0.0207738  
C254     C      0.246860000000     0.352200000000     0.971480000000    -0.0656641  
C255     C      0.225810000000     0.378780000000     0.019770000000     0.013956   
C256     C      0.226190000000     0.360590000000     0.989280000000     0.0135046  
C257     C      0.539630000000     0.373020000000     0.962350000000    -0.0204378  
C258     C      0.452880000000     0.371880000000     0.052770000000    -0.0204461  
C259     C      0.451700000000     0.374300000000     0.969780000000    -0.0203713  
C260     C      0.475630000000     0.373570000000     0.986080000000     0.0136534  
C261     C      0.476470000000     0.372250000000     0.033400000000     0.0126773  
C262     C      0.497500000000     0.371320000000     0.056720000000    -0.0650091  
C263     C      0.541770000000     0.371000000000     0.045320000000    -0.0204249  
C264     C      0.495510000000     0.373930000000     0.959420000000    -0.0662934  
C265     C      0.517490000000     0.371750000000     0.029920000000     0.0126281  
C266     C      0.516420000000     0.372960000000     0.982610000000     0.0137231  
C267     C      0.371260000000     0.540360000000     0.962220000000    -0.0202679  
C268     C      0.370310000000     0.452760000000     0.048560000000    -0.0202729  
C269     C      0.369310000000     0.452000000000     0.965420000000    -0.020437   
C270     C      0.369810000000     0.475930000000     0.982490000000     0.0133465  
C271     C      0.370210000000     0.476370000000     0.029900000000     0.0130268  
C272     C      0.370620000000     0.497080000000     0.054250000000    -0.0655423  
C273     C      0.371110000000     0.541340000000     0.045370000000    -0.0203589  
C274     C      0.370120000000     0.496150000000     0.956740000000    -0.0657748  
C275     C      0.370750000000     0.517330000000     0.028480000000     0.0131802  
C276     C      0.370670000000     0.516830000000     0.981060000000     0.0131561  
C277     C      0.639670000000     0.790520000000     0.535300000000    -0.0206332  
C278     C      0.605780000000     0.702520000000     0.485940000000    -0.0211345  
C279     C      0.633310000000     0.702140000000     0.548360000000    -0.0207175  
C280     C      0.628460000000     0.726010000000     0.533440000000     0.0131931  
C281     C      0.611570000000     0.726170000000     0.500100000000     0.0142232  
C282     C      0.602260000000     0.746700000000     0.483670000000    -0.066243   
C283     C      0.604800000000     0.790870000000     0.489820000000    -0.0207888  
C284     C      0.639190000000     0.746360000000     0.547470000000    -0.0653428  
C285     C      0.611900000000     0.767060000000     0.500140000000     0.014139   
C286     C      0.630840000000     0.766870000000     0.528730000000     0.0132254  
C287     C      0.605790000000     0.791480000000     0.979750000000    -0.020661   
C288     C      0.636510000000     0.701450000000     0.022990000000    -0.0207501  
C289     C      0.609950000000     0.703600000000     0.959050000000    -0.0208326  
C290     C      0.615010000000     0.726800000000     0.977130000000     0.0136496  
C291     C      0.631400000000     0.725660000000     0.011370000000     0.013738   
C292     C      0.641140000000     0.745550000000     0.029970000000    -0.065913   
C293     C      0.640120000000     0.790000000000     0.026770000000    -0.0209132  
C294     C      0.605100000000     0.747710000000     0.964300000000    -0.0657184  
C295     C      0.632320000000     0.766560000000     0.014760000000     0.0138538  
C296     C      0.613750000000     0.767510000000     0.985270000000     0.0135751  
C297     C      0.644370000000     0.872830000000     0.669430000000    -0.0201252  
C298     C      0.603340000000     0.872920000000     0.846510000000    -0.0200746  
C299     C      0.644960000000     0.871940000000     0.846140000000    -0.0202407  
C300     C      0.635870000000     0.872410000000     0.798720000000     0.0131971  
C301     C      0.612130000000     0.872840000000     0.798970000000     0.0130651  
C302     C      0.599440000000     0.873070000000     0.758270000000    -0.0656642  
C303     C      0.602730000000     0.872980000000     0.669800000000    -0.0203331  
C304     C      0.648260000000     0.872410000000     0.757670000000    -0.0656425  
C305     C      0.611830000000     0.872970000000     0.717220000000     0.0132579  
C306     C      0.635570000000     0.872760000000     0.716970000000     0.0130735  
C307     C      0.644330000000     0.870380000000     0.169430000000    -0.0203091  
C308     C      0.603290000000     0.870350000000     0.346550000000    -0.0201067  
C309     C      0.644920000000     0.869460000000     0.346190000000    -0.0205355  
C310     C      0.635820000000     0.869670000000     0.298750000000     0.0133205  
C311     C      0.612080000000     0.870060000000     0.299000000000     0.0129626  
C312     C      0.599390000000     0.870280000000     0.258270000000    -0.0655785  
C313     C      0.602690000000     0.870440000000     0.169780000000    -0.020365   
C314     C      0.648220000000     0.869730000000     0.257690000000    -0.0656996  
C315     C      0.611790000000     0.870200000000     0.217220000000     0.0131823  
C316     C      0.635530000000     0.870050000000     0.216970000000     0.0131489  
C317     C      0.639570000000     0.202630000000     0.466050000000    -0.020646   
C318     C      0.605550000000     0.291030000000     0.511940000000    -0.0211181  
C319     C      0.632190000000     0.290760000000     0.448000000000    -0.0207744  
C320     C      0.627740000000     0.267060000000     0.464490000000     0.0131545  
C321     C      0.611330000000     0.267240000000     0.498760000000     0.0142963  
C322     C      0.602490000000     0.246910000000     0.517010000000    -0.0662671  
C323     C      0.605400000000     0.202710000000     0.513600000000    -0.020808   
C324     C      0.638480000000     0.246590000000     0.451130000000    -0.0652359  
C325     C      0.612100000000     0.226400000000     0.501300000000     0.0141972  
C326     C      0.630610000000     0.226300000000     0.471610000000     0.0131552  
C327     C      0.645610000000     0.041010000000     0.501650000000    -0.0203341  
C328     C      0.603850000000     0.952550000000     0.505120000000    -0.0204764  
C329     C      0.645490000000     0.952370000000     0.503990000000    -0.0203097  
C330     C      0.636630000000     0.976210000000     0.503590000000     0.0130483  
C331     C      0.612890000000     0.976270000000     0.504130000000     0.0134847  
C332     C      0.600380000000     0.996750000000     0.503720000000    -0.0657675  
C333     C      0.603970000000     0.040950000000     0.502100000000    -0.0203042  
C334     C      0.649200000000     0.996680000000     0.502800000000    -0.0653816  
C335     C      0.612940000000     0.017200000000     0.502860000000     0.0133958  
C336     C      0.636680000000     0.017190000000     0.502500000000     0.0130606  
C337     C      0.605820000000     0.202420000000     0.976880000000    -0.0207303  
C338     C      0.634660000000     0.291460000000     0.032950000000    -0.0205977  
C339     C      0.607390000000     0.290670000000     0.970110000000    -0.0209496  
C340     C      0.612980000000     0.267120000000     0.985190000000     0.0140522  
C341     C      0.629710000000     0.267480000000     0.018840000000     0.0132735  
C342     C      0.640190000000     0.247180000000     0.033870000000    -0.0653669  
C343     C      0.640370000000     0.202890000000     0.023330000000    -0.020655   
C344     C      0.603620000000     0.246530000000     0.969280000000    -0.0661417  
C345     C      0.631770000000     0.226550000000     0.015710000000     0.0132978  
C346     C      0.613010000000     0.226260000000     0.986660000000     0.0140122  
C347     C      0.605620000000     0.122890000000     0.659060000000    -0.0203184  
C348     C      0.647280000000     0.124350000000     0.835850000000    -0.0203905  
C349     C      0.605720000000     0.122000000000     0.835130000000    -0.0202755  
C350     C      0.614780000000     0.122900000000     0.787910000000     0.013582   
C351     C      0.638490000000     0.124230000000     0.788060000000     0.0126116  
C352     C      0.651010000000     0.125130000000     0.747050000000    -0.0650078  
C353     C      0.647190000000     0.125200000000     0.658260000000    -0.0204288  
C354     C      0.602270000000     0.122410000000     0.747100000000    -0.066182   
C355     C      0.638440000000     0.124660000000     0.706070000000     0.0126258  
C356     C      0.614740000000     0.123340000000     0.706270000000     0.0135921  
C357     C      0.601190000000     0.121390000000     0.158350000000    -0.0203603  
C358     C      0.642670000000     0.118780000000     0.335160000000    -0.020252   
C359     C      0.601070000000     0.120630000000     0.335810000000    -0.0204798  
C360     C      0.609870000000     0.120240000000     0.288060000000     0.0127624  
C361     C      0.633590000000     0.119180000000     0.287930000000     0.0136279  
C362     C      0.646120000000     0.118830000000     0.247160000000    -0.0661787  
C363     C      0.642790000000     0.119540000000     0.159140000000    -0.0202944  
C364     C      0.597350000000     0.121010000000     0.247070000000    -0.0651132  
C365     C      0.633650000000     0.119570000000     0.206330000000     0.013653   
C366     C      0.609930000000     0.120630000000     0.206120000000     0.0127191  
C367     C      0.645580000000     0.040870000000     0.996690000000    -0.0203728  
C368     C      0.603800000000     0.952590000000     0.008140000000    -0.0202815  
C369     C      0.645430000000     0.952380000000     0.006300000000    -0.0202519  
C370     C      0.636570000000     0.976190000000     0.004180000000     0.0130538  
C371     C      0.612830000000     0.976280000000     0.005170000000     0.0134471  
C372     C      0.600330000000     0.996740000000     0.003220000000    -0.065786   
C373     C      0.603950000000     0.040870000000     0.998100000000    -0.0205344  
C374     C      0.649150000000     0.996610000000     0.001310000000    -0.0653131  
C375     C      0.612900000000     0.017140000000     0.000280000000     0.0136066  
C376     C      0.636630000000     0.017100000000     0.999420000000     0.0128844  
C377     C      0.202370000000     0.607520000000     0.471250000000    -0.0208447  
C378     C      0.290090000000     0.636900000000     0.532540000000    -0.0207458  
C379     C      0.290960000000     0.612000000000     0.465870000000    -0.020709   
C380     C      0.266980000000     0.616810000000     0.479910000000     0.0136435  
C381     C      0.266570000000     0.632370000000     0.515730000000     0.0139718  
C382     C      0.245970000000     0.641760000000     0.531640000000    -0.0659999  
C383     C      0.201890000000     0.640920000000     0.520990000000    -0.0208923  
C384     C      0.246700000000     0.607220000000     0.462700000000    -0.0655424  
C385     C      0.225730000000     0.633400000000     0.512000000000     0.0140177  
C386     C      0.226040000000     0.615460000000     0.480940000000     0.0136083  
C387     C      0.290720000000     0.634360000000     0.034770000000    -0.0207543  
C388     C      0.202130000000     0.605390000000     0.976700000000    -0.0206986  
C389     C      0.202310000000     0.639980000000     0.023070000000    -0.0206246  
C390     C      0.226010000000     0.631460000000     0.015830000000     0.0134801  
C391     C      0.225910000000     0.612710000000     0.986720000000     0.0139474  
C392     C      0.246290000000     0.603430000000     0.969610000000    -0.0660538  
C393     C      0.290440000000     0.607370000000     0.971400000000    -0.0208419  
C394     C      0.246490000000     0.639880000000     0.034520000000    -0.0655967  
C395     C      0.266770000000     0.612860000000     0.985960000000     0.0139381  
C396     C      0.266880000000     0.629480000000     0.019830000000     0.0134685  
C397     C      0.121560000000     0.644070000000     0.657660000000    -0.0201476  
C398     C      0.122540000000     0.603020000000     0.834750000000    -0.0203269  
C399     C      0.122920000000     0.644670000000     0.834390000000    -0.0203767  
C400     C      0.122680000000     0.635560000000     0.786960000000     0.0132183  
C401     C      0.122600000000     0.611820000000     0.787200000000     0.0131194  
C402     C      0.122460000000     0.599130000000     0.746480000000    -0.0656286  
C403     C      0.122120000000     0.602430000000     0.657980000000    -0.0205438  
C404     C      0.122350000000     0.647960000000     0.745910000000    -0.0656578  
C405     C      0.122280000000     0.611530000000     0.705420000000     0.0132968  
C406     C      0.122090000000     0.635270000000     0.705190000000     0.0130141  
C407     C      0.120860000000     0.603210000000     0.334730000000    -0.0200219  
C408     C      0.120170000000     0.644160000000     0.157610000000    -0.020076   
C409     C      0.120520000000     0.602520000000     0.158060000000    -0.0203279  
C410     C      0.120520000000     0.611650000000     0.205450000000     0.0132378  
C411     C      0.120430000000     0.635390000000     0.205160000000     0.0130715  
C412     C      0.120680000000     0.648110000000     0.245840000000    -0.0656876  
C413     C      0.121260000000     0.644850000000     0.334330000000    -0.0203675  
C414     C      0.120650000000     0.599270000000     0.246520000000    -0.0656835  
C415     C      0.120900000000     0.635730000000     0.286910000000     0.0132679  
C416     C      0.120790000000     0.611990000000     0.287200000000     0.0130175  
C417     C      0.790820000000     0.604690000000     0.510150000000    -0.0207992  
C418     C      0.700990000000     0.636190000000     0.467010000000    -0.0207412  
C419     C      0.703000000000     0.609310000000     0.530430000000    -0.0208614  
C420     C      0.726210000000     0.614220000000     0.512300000000     0.0138965  
C421     C      0.725190000000     0.630770000000     0.478360000000     0.0134473  
C422     C      0.745160000000     0.640480000000     0.460050000000    -0.0656145  
C423     C      0.789620000000     0.639220000000     0.463670000000    -0.0207419  
C424     C      0.747030000000     0.604140000000     0.525090000000    -0.0659467  
C425     C      0.766100000000     0.631450000000     0.475200000000     0.0134912  
C426     C      0.766900000000     0.612750000000     0.504380000000     0.0138742  
C427     C      0.951890000000     0.643860000000     0.485290000000    -0.0204397  
C428     C      0.040430000000     0.602500000000     0.494590000000    -0.0203305  
C429     C      0.040300000000     0.644140000000     0.494080000000    -0.0202758  
C430     C      0.016570000000     0.635120000000     0.491890000000     0.0132468  
C431     C      0.016650000000     0.611380000000     0.492020000000     0.0132179  
C432     C      0.996250000000     0.598770000000     0.489670000000    -0.0655205  
C433     C      0.952060000000     0.602210000000     0.484740000000    -0.0203654  
C434     C      0.996090000000     0.647600000000     0.489700000000    -0.0656102  
C435     C      0.975770000000     0.611240000000     0.487340000000     0.0132288  
C436     C      0.975680000000     0.634990000000     0.487500000000     0.0132927  
C437     C      0.790340000000     0.638690000000     0.956440000000    -0.020662   
C438     C      0.702160000000     0.606270000000     0.008260000000    -0.0206296  
C439     C      0.701970000000     0.633240000000     0.944860000000    -0.0206968  
C440     C      0.725780000000     0.628280000000     0.959780000000     0.013506   
C441     C      0.725860000000     0.611680000000     0.993680000000     0.0137184  
C442     C      0.746330000000     0.602210000000     0.010020000000    -0.0657507  
C443     C      0.790520000000     0.604120000000     0.002850000000    -0.0203498  
C444     C      0.746180000000     0.638640000000     0.945060000000    -0.06565    
C445     C      0.766730000000     0.611450000000     0.992870000000     0.0136708  
C446     C      0.766650000000     0.630190000000     0.963730000000     0.0135419  
C447     C      0.872390000000     0.643150000000     0.822100000000    -0.0201929  
C448     C      0.871940000000     0.602050000000     0.645060000000    -0.0201547  
C449     C      0.871160000000     0.643690000000     0.645390000000    -0.0203623  
C450     C      0.871640000000     0.634610000000     0.692820000000     0.0132529  
C451     C      0.871970000000     0.610860000000     0.692590000000     0.01308    
C452     C      0.872230000000     0.598180000000     0.733310000000    -0.0656742  
C453     C      0.872360000000     0.601500000000     0.821780000000    -0.0203017  
C454     C      0.871790000000     0.647020000000     0.733850000000    -0.0656967  
C455     C      0.872270000000     0.610590000000     0.774350000000     0.0132435  
C456     C      0.872170000000     0.634340000000     0.774570000000     0.0131004  
C457     C      0.870160000000     0.602110000000     0.144980000000    -0.0201985  
C458     C      0.870360000000     0.643070000000     0.322150000000    -0.0202913  
C459     C      0.870320000000     0.601420000000     0.321720000000    -0.0203641  
C460     C      0.870110000000     0.610540000000     0.274300000000     0.0132332  
C461     C      0.870010000000     0.634290000000     0.274600000000     0.0131052  
C462     C      0.869700000000     0.647000000000     0.233900000000    -0.0656256  
C463     C      0.869360000000     0.643750000000     0.145400000000    -0.0204696  
C464     C      0.870150000000     0.598170000000     0.233230000000    -0.0656725  
C465     C      0.869600000000     0.634630000000     0.192820000000     0.0132663  
C466     C      0.869930000000     0.610880000000     0.192530000000     0.0130414  
C467     C      0.952220000000     0.602630000000     0.987190000000    -0.0204402  
C468     C      0.040500000000     0.644640000000     0.992360000000    -0.0203385  
C469     C      0.040580000000     0.602990000000     0.992910000000    -0.0203628  
C470     C      0.016810000000     0.611880000000     0.991370000000     0.01344    
C471     C      0.016740000000     0.635630000000     0.991200000000     0.0131185  
C472     C      0.996220000000     0.648090000000     0.990050000000    -0.0654279  
C473     C      0.951970000000     0.644280000000     0.987680000000    -0.0203096  
C474     C      0.996420000000     0.599260000000     0.990090000000    -0.0658191  
C475     C      0.975800000000     0.635460000000     0.988910000000     0.0131017  
C476     C      0.975920000000     0.611720000000     0.988790000000     0.0134476  
C477     C      0.385680000000     0.291460000000     0.521230000000    -0.0209832  
C478     C      0.353360000000     0.203610000000     0.467000000000    -0.0206507  
C479     C      0.387810000000     0.203230000000     0.513750000000    -0.0205916  
C480     C      0.380520000000     0.227040000000     0.504090000000     0.0140425  
C481     C      0.361820000000     0.227290000000     0.474850000000     0.0132981  
C482     C      0.353330000000     0.247890000000     0.456760000000    -0.0654264  
C483     C      0.358600000000     0.292170000000     0.458020000000    -0.0206872  
C484     C      0.389730000000     0.247340000000     0.521750000000    -0.0661478  
C485     C      0.363650000000     0.268210000000     0.472070000000     0.0132768  
C486     C      0.380280000000     0.267900000000     0.505910000000     0.0141562  
C487     C      0.353700000000     0.202360000000     0.026010000000    -0.020688   
C488     C      0.386750000000     0.291190000000     0.980780000000    -0.0210051  
C489     C      0.360440000000     0.290400000000     0.045260000000    -0.0208395  
C490     C      0.364990000000     0.266830000000     0.028230000000     0.0134758  
C491     C      0.381230000000     0.267300000000     0.993640000000     0.0140435  
C492     C      0.390180000000     0.247110000000     0.974960000000    -0.0660959  
C493     C      0.387690000000     0.202860000000     0.977930000000    -0.0206057  
C494     C      0.354500000000     0.246240000000     0.041500000000    -0.0655242  
C495     C      0.380840000000     0.226460000000     0.990580000000     0.0139249  
C496     C      0.362450000000     0.226110000000     0.020580000000     0.0134844  
C497     C      0.346350000000     0.125540000000     0.832780000000    -0.0203095  
C498     C      0.387960000000     0.123110000000     0.655970000000    -0.0202993  
C499     C      0.346390000000     0.125350000000     0.655160000000    -0.0204059  
C500     C      0.355150000000     0.125110000000     0.702970000000     0.0125827  
C501     C      0.378850000000     0.123840000000     0.703180000000     0.0136043  
C502     C      0.391340000000     0.123210000000     0.744010000000    -0.0662236  
C503     C      0.387920000000     0.123310000000     0.832040000000    -0.0203457  
C504     C      0.342590000000     0.125820000000     0.743960000000    -0.064991   
C505     C      0.378830000000     0.123950000000     0.784810000000     0.0136208  
C506     C      0.355130000000     0.125210000000     0.784970000000     0.0125536  
C507     C      0.350940000000     0.118580000000     0.155960000000    -0.0202642  
C508     C      0.392540000000     0.121680000000     0.332650000000    -0.0201973  
C509     C      0.350950000000     0.119780000000     0.331980000000    -0.0204375  
C510     C      0.360060000000     0.119680000000     0.284770000000     0.0137564  
C511     C      0.383780000000     0.120780000000     0.284900000000     0.0126054  
C512     C      0.396320000000     0.121090000000     0.243910000000    -0.0650207  
C513     C      0.392530000000     0.120540000000     0.155180000000    -0.0203917  
C514     C      0.347550000000     0.118810000000     0.243990000000    -0.06628    
C515     C      0.383770000000     0.120200000000     0.202960000000     0.0126881  
C516     C      0.360050000000     0.119080000000     0.203160000000     0.0136533  
C517     C      0.385740000000     0.791220000000     0.464550000000    -0.0206883  
C518     C      0.359440000000     0.704030000000     0.534250000000    -0.020551   
C519     C      0.383950000000     0.702620000000     0.467030000000    -0.0207801  
C520     C      0.378690000000     0.726680000000     0.479600000000     0.0138484  
C521     C      0.363370000000     0.727370000000     0.515810000000     0.0136932  
C522     C      0.353440000000     0.748020000000     0.530160000000    -0.0657862  
C523     C      0.352790000000     0.791840000000     0.515420000000    -0.0207058  
C524     C      0.387460000000     0.746830000000     0.460230000000    -0.0657511  
C525     C      0.361020000000     0.768050000000     0.508490000000     0.0138002  
C526     C      0.378700000000     0.767590000000     0.476870000000     0.0137629  
C527     C      0.389780000000     0.041640000000     0.495390000000    -0.0202861  
C528     C      0.348080000000     0.953240000000     0.489040000000    -0.0202083  
C529     C      0.389720000000     0.953230000000     0.489340000000    -0.0202552  
C530     C      0.380770000000     0.976990000000     0.491000000000     0.013321   
C531     C      0.357030000000     0.977010000000     0.490880000000     0.0131484  
C532     C      0.344500000000     0.997480000000     0.492380000000    -0.0654516  
C533     C      0.348140000000     0.041730000000     0.495430000000    -0.0202793  
C534     C      0.393320000000     0.997440000000     0.492540000000    -0.0656795  
C535     C      0.357050000000     0.017930000000     0.493990000000     0.0131684  
C536     C      0.380800000000     0.017900000000     0.494020000000     0.0133351  
C537     C      0.358110000000     0.701860000000     0.957680000000    -0.0206634  
C538     C      0.386870000000     0.791130000000     0.011820000000    -0.020533   
C539     C      0.352940000000     0.790410000000     0.963580000000    -0.0206174  
C540     C      0.361160000000     0.766790000000     0.972900000000     0.0132805  
C541     C      0.379500000000     0.767240000000     0.003000000000     0.0140988  
C542     C      0.388420000000     0.747070000000     0.021850000000    -0.0661153  
C543     C      0.384290000000     0.702900000000     0.022360000000    -0.0207195  
C544     C      0.352850000000     0.746080000000     0.955060000000    -0.0654418  
C545     C      0.379060000000     0.726390000000     0.006300000000     0.0141003  
C546     C      0.362890000000     0.725870000000     0.971590000000     0.0132466  
C547     C      0.350570000000     0.873240000000     0.649610000000    -0.0202487  
C548     C      0.392180000000     0.870790000000     0.826320000000    -0.0201576  
C549     C      0.350590000000     0.872760000000     0.825580000000    -0.0204158  
C550     C      0.359700000000     0.872460000000     0.778380000000     0.0137617  
C551     C      0.383420000000     0.871320000000     0.778540000000     0.0125221  
C552     C      0.395960000000     0.870800000000     0.737550000000    -0.0649855  
C553     C      0.392150000000     0.871170000000     0.648780000000    -0.0202346  
C554     C      0.347190000000     0.873170000000     0.737600000000    -0.0663162  
C555     C      0.383400000000     0.871510000000     0.696580000000     0.012538   
C556     C      0.359690000000     0.872680000000     0.696790000000     0.013673   
C557     C      0.387440000000     0.872780000000     0.149590000000    -0.0203798  
C558     C      0.345790000000     0.871020000000     0.326340000000    -0.0203751  
C559     C      0.387360000000     0.873340000000     0.325590000000    -0.0203387  
C560     C      0.378270000000     0.872680000000     0.278390000000     0.0136963  
C561     C      0.354570000000     0.871360000000     0.278550000000     0.012634   
C562     C      0.342040000000     0.870510000000     0.237550000000    -0.0650496  
C563     C      0.345870000000     0.870430000000     0.148780000000    -0.0203765  
C564     C      0.390790000000     0.873250000000     0.237600000000    -0.0662803  
C565     C      0.354600000000     0.871070000000     0.196580000000     0.01263    
C566     C      0.378310000000     0.872410000000     0.196780000000     0.0137002  
C567     C      0.389470000000     0.952530000000     0.987590000000    -0.020455   
C568     C      0.347980000000     0.041090000000     0.988790000000    -0.0202857  
C569     C      0.389620000000     0.040940000000     0.988920000000    -0.0204011  
C570     C      0.380590000000     0.017210000000     0.988290000000     0.0134121  
C571     C      0.356850000000     0.017270000000     0.988270000000     0.0131106  
C572     C      0.344270000000     0.996810000000     0.988090000000    -0.0654781  
C573     C      0.347830000000     0.952520000000     0.987810000000    -0.02023    
C574     C      0.393090000000     0.996730000000     0.988030000000    -0.065718   
C575     C      0.356780000000     0.976310000000     0.987840000000     0.0131021  
C576     C      0.380520000000     0.976290000000     0.987770000000     0.013422   
H1       H      0.857900000000     0.338830000000     0.644950000000     0.0434814  
H2       H      0.855080000000     0.401530000000     0.643660000000     0.0435141  
H3       H      0.870650000000     0.414100000000     0.738800000000     0.0441236  
H4       H      0.874530000000     0.328270000000     0.739020000000     0.0440187  
H5       H      0.859070000000     0.338910000000     0.833630000000     0.0437332  
H6       H      0.887170000000     0.403000000000     0.834440000000     0.0432937  
H7       H      0.888820000000     0.340220000000     0.643900000000     0.0439395  
H8       H      0.885990000000     0.402920000000     0.642610000000     0.0433621  
H9       H      0.856250000000     0.401800000000     0.834630000000     0.0436367  
H10      H      0.889980000000     0.340480000000     0.833470000000     0.0438218  
H11      H      0.856540000000     0.398650000000     0.333990000000     0.0434788  
H12      H      0.852960000000     0.335990000000     0.334980000000     0.0434665  
H13      H      0.867200000000     0.323420000000     0.238740000000     0.0440844  
H14      H      0.872070000000     0.409200000000     0.239010000000     0.043966   
H15      H      0.855540000000     0.398770000000     0.144450000000     0.0432438  
H16      H      0.882880000000     0.334350000000     0.142970000000     0.0434815  
H17      H      0.887430000000     0.396890000000     0.333090000000     0.0439946  
H18      H      0.883850000000     0.334220000000     0.334090000000     0.0433814  
H19      H      0.851990000000     0.336280000000     0.143100000000     0.0433873  
H20      H      0.886450000000     0.397180000000     0.144340000000     0.0440897  
H21      H      0.947970000000     0.336550000000     0.519290000000     0.0436747  
H22      H      0.948010000000     0.399550000000     0.520560000000     0.0439397  
H23      H      0.996110000000     0.411150000000     0.494480000000     0.0440843  
H24      H      0.996240000000     0.325230000000     0.492720000000     0.044039   
H25      H      0.043080000000     0.336780000000     0.528620000000     0.043431   
H26      H      0.044410000000     0.399880000000     0.468200000000     0.0436867  
H27      H      0.949180000000     0.337090000000     0.457530000000     0.0434773  
H28      H      0.949220000000     0.399620000000     0.458790000000     0.0434479  
H29      H      0.042820000000     0.399480000000     0.529930000000     0.0437162  
H30      H      0.044660000000     0.337040000000     0.466890000000     0.0436878  
H31      H      0.106870000000     0.403130000000     0.849740000000     0.0433368  
H32      H      0.104150000000     0.340380000000     0.848460000000     0.044007   
H33      H      0.118370000000     0.328480000000     0.753370000000     0.0440351  
H34      H      0.122120000000     0.414310000000     0.753540000000     0.0441182  
H35      H      0.105510000000     0.403180000000     0.658010000000     0.0432672  
H36      H      0.133700000000     0.339130000000     0.658650000000     0.043752   
H37      H      0.137790000000     0.401750000000     0.848710000000     0.0434228  
H38      H      0.135060000000     0.339080000000     0.847420000000     0.0434806  
H39      H      0.102790000000     0.340650000000     0.659020000000     0.0438605  
H40      H      0.136440000000     0.402010000000     0.657610000000     0.0435917  
H41      H      0.135390000000     0.398870000000     0.158410000000     0.0435007  
H42      H      0.139150000000     0.336180000000     0.157400000000     0.0435102  
H43      H      0.124970000000     0.323590000000     0.253600000000     0.0441204  
H44      H      0.119870000000     0.409350000000     0.253360000000     0.0439501  
H45      H      0.136490000000     0.398960000000     0.347830000000     0.0432478  
H46      H      0.109310000000     0.334480000000     0.349450000000     0.0434485  
H47      H      0.104510000000     0.396980000000     0.159260000000     0.0439956  
H48      H      0.108260000000     0.334360000000     0.158230000000     0.0433925  
H49      H      0.140190000000     0.336460000000     0.349170000000     0.0433666  
H50      H      0.105590000000     0.397290000000     0.348090000000     0.0440409  
H51      H      0.949470000000     0.399420000000     0.962710000000     0.0437729  
H52      H      0.949310000000     0.336690000000     0.964020000000     0.0434728  
H53      H      0.996280000000     0.325230000000     0.999390000000     0.0440396  
H54      H      0.996260000000     0.411150000000     0.997610000000     0.0440304  
H55      H      0.044340000000     0.399590000000     0.971020000000     0.0438266  
H56      H      0.043390000000     0.337150000000     0.034090000000     0.0435414  
H57      H      0.948040000000     0.399780000000     0.024460000000     0.0437551  
H58      H      0.947890000000     0.336980000000     0.025770000000     0.0437277  
H59      H      0.044490000000     0.336650000000     0.972320000000     0.0435779  
H60      H      0.043240000000     0.399730000000     0.032800000000     0.0434768  
H61      H      0.793550000000     0.403720000000     0.480170000000     0.045712   
H62      H      0.793960000000     0.352120000000     0.551360000000     0.04075    
H63      H      0.745560000000     0.338390000000     0.548490000000     0.0443572  
H64      H      0.746520000000     0.401140000000     0.431280000000     0.0443782  
H65      H      0.698400000000     0.401990000000     0.459050000000     0.0410101  
H66      H      0.697530000000     0.338480000000     0.519350000000     0.0404802  
H67      H      0.794270000000     0.386480000000     0.428820000000     0.0408034  
H68      H      0.792720000000     0.334820000000     0.500140000000     0.0454947  
H69      H      0.698440000000     0.362990000000     0.557100000000     0.0455925  
H70      H      0.699470000000     0.377550000000     0.421140000000     0.0458754  
H71      H      0.607450000000     0.545550000000     0.438340000000     0.0432849  
H72      H      0.607870000000     0.542610000000     0.563820000000     0.0444032  
H73      H      0.624060000000     0.494820000000     0.582540000000     0.044162   
H74      H      0.622420000000     0.498460000000     0.411130000000     0.0440202  
H75      H      0.606700000000     0.450570000000     0.431140000000     0.0442744  
H76      H      0.639590000000     0.447590000000     0.554300000000     0.0437634  
H77      H      0.638390000000     0.545780000000     0.438270000000     0.0436254  
H78      H      0.638810000000     0.543030000000     0.563260000000     0.0432155  
H79      H      0.608660000000     0.447770000000     0.556600000000     0.0434228  
H80      H      0.637630000000     0.450210000000     0.429390000000     0.0430275  
H81      H      0.794510000000     0.352350000000     0.923780000000     0.0408209  
H82      H      0.794270000000     0.404810000000     0.992370000000     0.0457215  
H83      H      0.746750000000     0.403750000000     0.039200000000     0.0443166  
H84      H      0.745630000000     0.339340000000     0.925670000000     0.0443708  
H85      H      0.698520000000     0.364540000000     0.914790000000     0.0451394  
H86      H      0.699710000000     0.381280000000     0.049750000000     0.0464409  
H87      H      0.792290000000     0.335710000000     0.975730000000     0.0453299  
H88      H      0.793960000000     0.388210000000     0.044560000000     0.04097    
H89      H      0.698760000000     0.404880000000     0.009790000000     0.0409289  
H90      H      0.697490000000     0.340450000000     0.953610000000     0.0405317  
H91      H      0.604000000000     0.450020000000     0.044510000000     0.0441061  
H92      H      0.606420000000     0.447700000000     0.919310000000     0.0434053  
H93      H      0.621910000000     0.495650000000     0.894240000000     0.0440825  
H94      H      0.618180000000     0.497820000000     0.065620000000     0.0440775  
H95      H      0.602570000000     0.544590000000     0.039100000000     0.044243   
H96      H      0.636470000000     0.544110000000     0.916860000000     0.0434459  
H97      H      0.634920000000     0.450580000000     0.046800000000     0.0435725  
H98      H      0.637340000000     0.448190000000     0.921640000000     0.0434011  
H99      H      0.605550000000     0.544000000000     0.914270000000     0.0430446  
H100     H      0.633470000000     0.544740000000     0.042440000000     0.0439218  
H101     H      0.543610000000     0.633840000000     0.452430000000     0.0439548  
H102     H      0.544360000000     0.636880000000     0.578000000000     0.0434523  
H103     H      0.496150000000     0.622570000000     0.602720000000     0.044146   
H104     H      0.496480000000     0.618330000000     0.431340000000     0.0440117  
H105     H      0.449570000000     0.635030000000     0.451700000000     0.0436801  
H106     H      0.447800000000     0.607230000000     0.579920000000     0.0433791  
H107     H      0.543550000000     0.602930000000     0.455780000000     0.0440945  
H108     H      0.544270000000     0.605960000000     0.580610000000     0.0432025  
H109     H      0.448410000000     0.638140000000     0.576970000000     0.0434605  
H110     H      0.448950000000     0.604120000000     0.454820000000     0.0440277  
H111     H      0.544800000000     0.608590000000     0.051350000000     0.0433087  
H112     H      0.543220000000     0.607810000000     0.925650000000     0.0445145  
H113     H      0.495450000000     0.623060000000     0.904300000000     0.0441681  
H114     H      0.497250000000     0.623210000000     0.075870000000     0.0440094  
H115     H      0.449790000000     0.606690000000     0.054390000000     0.044149   
H116     H      0.447760000000     0.638190000000     0.929700000000     0.043775   
H117     H      0.544630000000     0.639540000000     0.050140000000     0.0434671  
H118     H      0.543210000000     0.638760000000     0.925210000000     0.0432508  
H119     H      0.448250000000     0.607240000000     0.929070000000     0.0433422  
H120     H      0.449160000000     0.637630000000     0.055030000000     0.0432625  
H121     H      0.198100000000     0.352690000000     0.567940000000     0.0407623  
H122     H      0.198210000000     0.404960000000     0.498770000000     0.0458359  
H123     H      0.245540000000     0.403610000000     0.451110000000     0.0443828  
H124     H      0.246890000000     0.339570000000     0.565490000000     0.0443335  
H125     H      0.294000000000     0.364680000000     0.575500000000     0.0452379  
H126     H      0.292580000000     0.380920000000     0.440310000000     0.0463074  
H127     H      0.200040000000     0.335890000000     0.516140000000     0.0453513  
H128     H      0.198220000000     0.388220000000     0.446740000000     0.0409987  
H129     H      0.293600000000     0.404730000000     0.479790000000     0.0409602  
H130     H      0.294960000000     0.340500000000     0.536910000000     0.0405303  
H131     H      0.543120000000     0.387640000000     0.419960000000     0.0432212  
H132     H      0.544210000000     0.390440000000     0.544880000000     0.0441036  
H133     H      0.497270000000     0.375330000000     0.571770000000     0.0439893  
H134     H      0.494720000000     0.371630000000     0.400400000000     0.0441833  
H135     H      0.447000000000     0.387450000000     0.425700000000     0.0434125  
H136     H      0.449820000000     0.359090000000     0.553350000000     0.0435085  
H137     H      0.543000000000     0.356710000000     0.422440000000     0.0435777  
H138     H      0.544110000000     0.359530000000     0.547950000000     0.0437227  
H139     H      0.449500000000     0.390020000000     0.550780000000     0.0440559  
H140     H      0.447280000000     0.356520000000     0.428120000000     0.0435941  
H141     H      0.383820000000     0.544830000000     0.576420000000     0.0432524  
H142     H      0.386850000000     0.545300000000     0.450970000000     0.0443172  
H143     H      0.372050000000     0.498420000000     0.425050000000     0.0440431  
H144     H      0.368230000000     0.496480000000     0.596430000000     0.0441417  
H145     H      0.384680000000     0.448880000000     0.571820000000     0.0433586  
H146     H      0.356350000000     0.450820000000     0.444080000000     0.0435922  
H147     H      0.352920000000     0.544820000000     0.573190000000     0.0432863  
H148     H      0.355930000000     0.545340000000     0.448210000000     0.0435245  
H149     H      0.387270000000     0.451060000000     0.446640000000     0.0441407  
H150     H      0.353770000000     0.448590000000     0.569260000000     0.043472   
H151     H      0.294320000000     0.363310000000     0.938990000000     0.0457566  
H152     H      0.294020000000     0.401580000000     0.038370000000     0.0409737  
H153     H      0.245710000000     0.400740000000     0.064780000000     0.044427   
H154     H      0.247180000000     0.338820000000     0.945860000000     0.0443948  
H155     H      0.198920000000     0.352710000000     0.942060000000     0.0407394  
H156     H      0.197810000000     0.386340000000     0.065400000000     0.0407808  
H157     H      0.295030000000     0.338550000000     0.976070000000     0.0404693  
H158     H      0.292730000000     0.376800000000     0.075360000000     0.0457579  
H159     H      0.199040000000     0.403860000000     0.014490000000     0.0457149  
H160     H      0.199680000000     0.335100000000     0.992890000000     0.0456214  
H161     H      0.447900000000     0.359560000000     0.946920000000     0.0437369  
H162     H      0.449680000000     0.355880000000     0.072360000000     0.0436289  
H163     H      0.498270000000     0.370280000000     0.093660000000     0.0442285  
H164     H      0.494740000000     0.374880000000     0.922450000000     0.0439461  
H165     H      0.542170000000     0.357990000000     0.939550000000     0.0434495  
H166     H      0.545950000000     0.385890000000     0.067480000000     0.0435603  
H167     H      0.448170000000     0.390440000000     0.950890000000     0.0441413  
H168     H      0.449890000000     0.386790000000     0.075640000000     0.0431295  
H169     H      0.545470000000     0.354980000000     0.064490000000     0.0435588  
H170     H      0.542720000000     0.388910000000     0.942340000000     0.0440515  
H171     H      0.384400000000     0.448260000000     0.943460000000     0.0434008  
H172     H      0.385980000000     0.449510000000     0.069160000000     0.0444087  
H173     H      0.370860000000     0.497400000000     0.091280000000     0.0440293  
H174     H      0.369990000000     0.495830000000     0.919710000000     0.0441301  
H175     H      0.386890000000     0.543150000000     0.941230000000     0.0443147  
H176     H      0.355640000000     0.545210000000     0.066150000000     0.0437114  
H177     H      0.353460000000     0.448580000000     0.945490000000     0.0437282  
H178     H      0.355040000000     0.449620000000     0.070390000000     0.0429823  
H179     H      0.386590000000     0.544720000000     0.066430000000     0.0430937  
H180     H      0.355950000000     0.543840000000     0.940700000000     0.0433969  
H181     H      0.627870000000     0.699430000000     0.584390000000     0.045203   
H182     H      0.587190000000     0.699000000000     0.490010000000     0.0408495  
H183     H      0.588350000000     0.746820000000     0.459190000000     0.0444276  
H184     H      0.653320000000     0.746220000000     0.571440000000     0.0443803  
H185     H      0.640710000000     0.795090000000     0.572150000000     0.0407631  
H186     H      0.604030000000     0.794030000000     0.452350000000     0.0408488  
H187     H      0.651810000000     0.697920000000     0.545290000000     0.0405632  
H188     H      0.610630000000     0.699480000000     0.449670000000     0.0464633  
H189     H      0.587740000000     0.794680000000     0.504910000000     0.0459022  
H190     H      0.656930000000     0.792500000000     0.519740000000     0.0453313  
H191     H      0.615740000000     0.701930000000     0.922980000000     0.0456453  
H192     H      0.655110000000     0.697660000000     0.019910000000     0.0404659  
H193     H      0.654810000000     0.744730000000     0.054920000000     0.0444312  
H194     H      0.591410000000     0.748540000000     0.939380000000     0.0444848  
H195     H      0.605240000000     0.796610000000     0.943140000000     0.0408356  
H196     H      0.640490000000     0.792620000000     0.064430000000     0.0406144  
H197     H      0.591350000000     0.699640000000     0.960790000000     0.0409563  
H198     H      0.630870000000     0.697350000000     0.058370000000     0.0459099  
H199     H      0.657480000000     0.793420000000     0.012770000000     0.0458102  
H200     H      0.588460000000     0.793810000000     0.994800000000     0.0455061  
H201     H      0.655920000000     0.887110000000     0.853120000000     0.0431962  
H202     H      0.593190000000     0.888650000000     0.853550000000     0.0439535  
H203     H      0.580900000000     0.873290000000     0.758530000000     0.0440576  
H204     H      0.666800000000     0.872130000000     0.757400000000     0.044038   
H205     H      0.654890000000     0.888340000000     0.662660000000     0.0439406  
H206     H      0.592080000000     0.857550000000     0.663190000000     0.0437912  
H207     H      0.655150000000     0.856170000000     0.852470000000     0.0436219  
H208     H      0.592390000000     0.857710000000     0.853200000000     0.0431836  
H209     H      0.592230000000     0.888500000000     0.663080000000     0.0431978  
H210     H      0.654940000000     0.857380000000     0.662470000000     0.0433416  
H211     H      0.655920000000     0.884640000000     0.352830000000     0.0434145  
H212     H      0.593030000000     0.886040000000     0.353230000000     0.0441051  
H213     H      0.580850000000     0.870560000000     0.258530000000     0.0439688  
H214     H      0.666760000000     0.869590000000     0.257430000000     0.0440809  
H215     H      0.654900000000     0.885890000000     0.163030000000     0.0441441  
H216     H      0.592150000000     0.854980000000     0.162800000000     0.0436536  
H217     H      0.655050000000     0.853700000000     0.352870000000     0.0436492  
H218     H      0.592460000000     0.855090000000     0.353570000000     0.0430833  
H219     H      0.592090000000     0.885930000000     0.163420000000     0.0433054  
H220     H      0.654860000000     0.854950000000     0.162110000000     0.0433098  
H221     H      0.626170000000     0.292950000000     0.412210000000     0.0451104  
H222     H      0.586880000000     0.294350000000     0.508620000000     0.0407251  
H223     H      0.588950000000     0.247050000000     0.542330000000     0.0443101  
H224     H      0.652280000000     0.246480000000     0.426400000000     0.044371   
H225     H      0.640130000000     0.197470000000     0.429460000000     0.0408234  
H226     H      0.605250000000     0.200160000000     0.551290000000     0.0408138  
H227     H      0.650700000000     0.295150000000     0.449710000000     0.0404956  
H228     H      0.610820000000     0.294570000000     0.547800000000     0.0466296  
H229     H      0.588150000000     0.198520000000     0.499860000000     0.0460051  
H230     H      0.657060000000     0.201050000000     0.480730000000     0.0452196  
H231     H      0.656270000000     0.949150000000     0.534670000000     0.0435191  
H232     H      0.593480000000     0.949460000000     0.536400000000     0.0438932  
H233     H      0.581840000000     0.996780000000     0.504050000000     0.0440723  
H234     H      0.667740000000     0.996650000000     0.502430000000     0.0440728  
H235     H      0.656190000000     0.044670000000     0.532390000000     0.0436433  
H236     H      0.593290000000     0.044020000000     0.471220000000     0.0439234  
H237     H      0.655790000000     0.948720000000     0.472870000000     0.043633   
H238     H      0.593080000000     0.948970000000     0.474600000000     0.0436215  
H239     H      0.593510000000     0.044600000000     0.533030000000     0.0434739  
H240     H      0.656130000000     0.044150000000     0.470580000000     0.0435098  
H241     H      0.588790000000     0.294320000000     0.973690000000     0.0409852  
H242     H      0.629140000000     0.294540000000     0.068810000000     0.0452277  
H243     H      0.654190000000     0.247420000000     0.058130000000     0.0444001  
H244     H      0.589840000000     0.246300000000     0.944490000000     0.0442951  
H245     H      0.588640000000     0.198850000000     0.991630000000     0.0458304  
H246     H      0.657730000000     0.200650000000     0.008390000000     0.0453625  
H247     H      0.612430000000     0.293360000000     0.933830000000     0.046289   
H248     H      0.653200000000     0.295540000000     0.029920000000     0.0405447  
H249     H      0.641080000000     0.198620000000     0.060350000000     0.0409141  
H250     H      0.605280000000     0.198970000000     0.939490000000     0.0409133  
H251     H      0.595990000000     0.105910000000     0.841190000000     0.043962   
H252     H      0.658680000000     0.109460000000     0.842320000000     0.0434117  
H253     H      0.669530000000     0.126100000000     0.747030000000     0.0440775  
H254     H      0.583760000000     0.121310000000     0.747120000000     0.0438954  
H255     H      0.595800000000     0.106900000000     0.652520000000     0.0440881  
H256     H      0.656740000000     0.141290000000     0.651290000000     0.0433862  
H257     H      0.594270000000     0.136810000000     0.842190000000     0.0433452  
H258     H      0.656900000000     0.140350000000     0.843300000000     0.0434736  
H259     H      0.658640000000     0.110400000000     0.651250000000     0.0434917  
H260     H      0.594260000000     0.137820000000     0.652540000000     0.0432578  
H261     H      0.589970000000     0.105580000000     0.342810000000     0.0433338  
H262     H      0.652470000000     0.102790000000     0.341800000000     0.0437991  
H263     H      0.664650000000     0.118080000000     0.247190000000     0.0440129  
H264     H      0.578830000000     0.121910000000     0.247030000000     0.0441656  
H265     H      0.590030000000     0.106430000000     0.150880000000     0.0433697  
H266     H      0.654080000000     0.134580000000     0.153110000000     0.0435642  
H267     H      0.591150000000     0.136500000000     0.342710000000     0.0436786  
H268     H      0.654040000000     0.133710000000     0.341660000000     0.0436697  
H269     H      0.652680000000     0.103660000000     0.152100000000     0.0439294  
H270     H      0.591340000000     0.137350000000     0.151860000000     0.0435855  
H271     H      0.656190000000     0.949720000000     0.037200000000     0.0433295  
H272     H      0.593720000000     0.950070000000     0.039990000000     0.0435562  
H273     H      0.581790000000     0.996790000000     0.003950000000     0.0440967  
H274     H      0.667680000000     0.996560000000     0.000600000000     0.0440964  
H275     H      0.656530000000     0.044990000000     0.026690000000     0.0438427  
H276     H      0.593270000000     0.043480000000     0.967050000000     0.0434706  
H277     H      0.655760000000     0.948170000000     0.975480000000     0.0438038  
H278     H      0.592740000000     0.948480000000     0.978290000000     0.0437777  
H279     H      0.593490000000     0.045010000000     0.028790000000     0.0440757  
H280     H      0.655730000000     0.043500000000     0.964960000000     0.0433993  
H281     H      0.294420000000     0.618740000000     0.430990000000     0.0454698  
H282     H      0.294130000000     0.655510000000     0.532060000000     0.0397736  
H283     H      0.245690000000     0.654780000000     0.558000000000     0.0442413  
H284     H      0.246970000000     0.594020000000     0.436700000000     0.0443944  
H285     H      0.198590000000     0.607780000000     0.433990000000     0.0404998  
H286     H      0.197860000000     0.640680000000     0.558150000000     0.040596   
H287     H      0.294740000000     0.593340000000     0.466340000000     0.0403868  
H288     H      0.292350000000     0.630370000000     0.567970000000     0.0461437  
H289     H      0.198920000000     0.658490000000     0.507600000000     0.0457518  
H290     H      0.199610000000     0.589870000000     0.484380000000     0.0457242  
H291     H      0.200060000000     0.657310000000     0.008000000000     0.0454387  
H292     H      0.198790000000     0.604810000000     0.939280000000     0.0408146  
H293     H      0.246230000000     0.589670000000     0.944760000000     0.0444245  
H294     H      0.246570000000     0.653800000000     0.058970000000     0.0444739  
H295     H      0.294830000000     0.652910000000     0.032170000000     0.0405254  
H296     H      0.294090000000     0.588750000000     0.974650000000     0.0407555  
H297     H      0.197900000000     0.640720000000     0.060030000000     0.0407036  
H298     H      0.198610000000     0.588200000000     0.991460000000     0.0458625  
H299     H      0.293390000000     0.612630000000     0.935330000000     0.0462591  
H300     H      0.293520000000     0.628690000000     0.070620000000     0.0453419  
H301     H      0.107630000000     0.655490000000     0.841210000000     0.0433511  
H302     H      0.107000000000     0.592570000000     0.841600000000     0.0442162  
H303     H      0.122450000000     0.580580000000     0.746730000000     0.0440743  
H304     H      0.122260000000     0.666500000000     0.745650000000     0.0440259  
H305     H      0.105870000000     0.654380000000     0.651350000000     0.0440681  
H306     H      0.137710000000     0.592100000000     0.650930000000     0.0437993  
H307     H      0.138580000000     0.654990000000     0.840900000000     0.0435894  
H308     H      0.137940000000     0.592370000000     0.841630000000     0.0431569  
H309     H      0.106770000000     0.591630000000     0.651670000000     0.0433372  
H310     H      0.136800000000     0.654870000000     0.650280000000     0.0431629  
H311     H      0.105100000000     0.591840000000     0.151490000000     0.043187   
H312     H      0.104530000000     0.654500000000     0.150940000000     0.0439304  
H313     H      0.120700000000     0.666650000000     0.245550000000     0.0441053  
H314     H      0.120660000000     0.580730000000     0.246820000000     0.0439899  
H315     H      0.105310000000     0.592810000000     0.341800000000     0.0439824  
H316     H      0.136900000000     0.655230000000     0.340650000000     0.0436349  
H317     H      0.136060000000     0.592050000000     0.151330000000     0.0436983  
H318     H      0.135470000000     0.654920000000     0.150510000000     0.043386   
H319     H      0.105950000000     0.655610000000     0.341310000000     0.0433042  
H320     H      0.136250000000     0.592500000000     0.341410000000     0.0431603  
H321     H      0.701480000000     0.614890000000     0.566660000000     0.0457878  
H322     H      0.697400000000     0.654810000000     0.470370000000     0.0404419  
H323     H      0.744460000000     0.654320000000     0.435430000000     0.0443299  
H324     H      0.747750000000     0.590380000000     0.549870000000     0.044531   
H325     H      0.795790000000     0.603960000000     0.546830000000     0.0409414  
H326     H      0.792390000000     0.639710000000     0.426060000000     0.0405913  
H327     H      0.698850000000     0.590760000000     0.528280000000     0.0410372  
H328     H      0.696760000000     0.630710000000     0.431590000000     0.04572    
H329     H      0.793040000000     0.656530000000     0.477950000000     0.0457359  
H330     H      0.793140000000     0.587430000000     0.494800000000     0.0455787  
H331     H      0.042930000000     0.654720000000     0.525260000000     0.043365   
H332     H      0.043070000000     0.592170000000     0.526090000000     0.0435937  
H333     H      0.996310000000     0.580220000000     0.489660000000     0.0440209  
H334     H      0.996030000000     0.666140000000     0.489710000000     0.0441144  
H335     H      0.947740000000     0.654400000000     0.515860000000     0.0439692  
H336     H      0.949500000000     0.591880000000     0.453220000000     0.0436362  
H337     H      0.044360000000     0.654720000000     0.463520000000     0.0439815  
H338     H      0.044600000000     0.591730000000     0.464350000000     0.0436277  
H339     H      0.947960000000     0.591400000000     0.514950000000     0.0437421  
H340     H      0.949190000000     0.654410000000     0.454110000000     0.0433608  
H341     H      0.699150000000     0.627550000000     0.909020000000     0.0453808  
H342     H      0.698440000000     0.587670000000     0.005010000000     0.0406995  
H343     H      0.746380000000     0.588480000000     0.034910000000     0.0443134  
H344     H      0.746120000000     0.652560000000     0.920600000000     0.0444305  
H345     H      0.794740000000     0.639420000000     0.919470000000     0.0406998  
H346     H      0.793880000000     0.603540000000     0.040270000000     0.0406931  
H347     H      0.697930000000     0.651810000000     0.947400000000     0.0405546  
H348     H      0.699230000000     0.611550000000     0.044330000000     0.0461521  
H349     H      0.794030000000     0.586930000000     0.988090000000     0.0456783  
H350     H      0.792590000000     0.656030000000     0.971470000000     0.0454559  
H351     H      0.886360000000     0.654590000000     0.638320000000     0.0432894  
H352     H      0.887590000000     0.591800000000     0.637970000000     0.0440226  
H353     H      0.872380000000     0.579640000000     0.733070000000     0.044085   
H354     H      0.871600000000     0.665560000000     0.734090000000     0.0440662  
H355     H      0.887950000000     0.653610000000     0.828710000000     0.0439416  
H356     H      0.856910000000     0.590910000000     0.828550000000     0.0437952  
H357     H      0.855420000000     0.653930000000     0.639100000000     0.0436326  
H358     H      0.856650000000     0.591200000000     0.638460000000     0.043189   
H359     H      0.887870000000     0.590950000000     0.828360000000     0.0432116  
H360     H      0.857000000000     0.653790000000     0.829180000000     0.0433683  
H361     H      0.885790000000     0.590790000000     0.328080000000     0.0432704  
H362     H      0.885900000000     0.653580000000     0.328590000000     0.0441277  
H363     H      0.869590000000     0.665550000000     0.234200000000     0.0440386  
H364     H      0.870370000000     0.579630000000     0.232930000000     0.0439836  
H365     H      0.885820000000     0.591820000000     0.138210000000     0.0441195  
H366     H      0.853610000000     0.653920000000     0.138800000000     0.0436153  
H367     H      0.854840000000     0.590900000000     0.328660000000     0.0436537  
H368     H      0.854960000000     0.653650000000     0.329460000000     0.0433359  
H369     H      0.884550000000     0.654710000000     0.138710000000     0.0434031  
H370     H      0.854880000000     0.591310000000     0.137990000000     0.043098   
H371     H      0.044430000000     0.592290000000     0.962410000000     0.0435976  
H372     H      0.044280000000     0.655100000000     0.961500000000     0.0437511  
H373     H      0.996140000000     0.666640000000     0.990020000000     0.0440345  
H374     H      0.996490000000     0.580720000000     0.990090000000     0.0440884  
H375     H      0.949380000000     0.592180000000     0.955920000000     0.0438504  
H376     H      0.948090000000     0.654720000000     0.018530000000     0.0438111  
H377     H      0.043520000000     0.592570000000     0.024200000000     0.0438817  
H378     H      0.043460000000     0.655310000000     0.023300000000     0.0435099  
H379     H      0.948950000000     0.654920000000     0.956740000000     0.0434666  
H380     H      0.948430000000     0.591930000000     0.017710000000     0.043649   
H381     H      0.388310000000     0.199720000000     0.551120000000     0.0408774  
H382     H      0.335970000000     0.201260000000     0.481740000000     0.0454002  
H383     H      0.339400000000     0.248090000000     0.432340000000     0.0444044  
H384     H      0.403440000000     0.247140000000     0.546700000000     0.0443005  
H385     H      0.380490000000     0.294070000000     0.557450000000     0.0462701  
H386     H      0.364220000000     0.295340000000     0.422260000000     0.0453087  
H387     H      0.405040000000     0.199770000000     0.499080000000     0.0457525  
H388     H      0.352770000000     0.199390000000     0.429940000000     0.0408454  
H389     H      0.340030000000     0.296140000000     0.460830000000     0.0405753  
H390     H      0.404260000000     0.295240000000     0.517930000000     0.040971   
H391     H      0.366600000000     0.292460000000     0.080990000000     0.0452637  
H392     H      0.405410000000     0.294660000000     0.983710000000     0.040709   
H393     H      0.403610000000     0.247450000000     0.949420000000     0.0442743  
H394     H      0.340830000000     0.245920000000     0.066500000000     0.044442   
H395     H      0.353330000000     0.197090000000     0.062540000000     0.0408511  
H396     H      0.387720000000     0.200410000000     0.940210000000     0.0406934  
H397     H      0.341900000000     0.294660000000     0.043950000000     0.0405663  
H398     H      0.381230000000     0.294880000000     0.945130000000     0.0464565  
H399     H      0.405030000000     0.198770000000     0.991380000000     0.0458982  
H400     H      0.336170000000     0.200690000000     0.011570000000     0.0453297  
H401     H      0.336770000000     0.141370000000     0.647850000000     0.0434264  
H402     H      0.399340000000     0.137990000000     0.649110000000     0.0432945  
H403     H      0.409850000000     0.122150000000     0.744040000000     0.043909   
H404     H      0.324070000000     0.126730000000     0.743930000000     0.0440732  
H405     H      0.336750000000     0.141580000000     0.839980000000     0.0433304  
H406     H      0.397760000000     0.107310000000     0.838340000000     0.0441084  
H407     H      0.335000000000     0.110470000000     0.648480000000     0.0434334  
H408     H      0.397760000000     0.107080000000     0.649770000000     0.044012   
H409     H      0.399250000000     0.138230000000     0.838840000000     0.0432915  
H410     H      0.334930000000     0.110680000000     0.839510000000     0.0434159  
H411     H      0.341090000000     0.103900000000     0.339240000000     0.0439392  
H412     H      0.403730000000     0.106760000000     0.340270000000     0.0433265  
H413     H      0.414840000000     0.122040000000     0.243880000000     0.0441375  
H414     H      0.329030000000     0.118030000000     0.244010000000     0.0440625  
H415     H      0.341200000000     0.102540000000     0.149450000000     0.0437784  
H416     H      0.402420000000     0.136420000000     0.148160000000     0.0436941  
H417     H      0.339640000000     0.134810000000     0.337860000000     0.0436426  
H418     H      0.402390000000     0.137670000000     0.338930000000     0.0435026  
H419     H      0.403660000000     0.105490000000     0.148240000000     0.0432744  
H420     H      0.339510000000     0.133450000000     0.149400000000     0.0436714  
H421     H      0.402680000000     0.699240000000     0.467640000000     0.040479   
H422     H      0.366400000000     0.702430000000     0.569500000000     0.0456279  
H423     H      0.340540000000     0.748470000000     0.556740000000     0.0442057  
H424     H      0.400400000000     0.746380000000     0.433720000000     0.0443327  
H425     H      0.403430000000     0.794860000000     0.476610000000     0.0458808  
H426     H      0.335040000000     0.793920000000     0.502340000000     0.0454721  
H427     H      0.377250000000     0.698490000000     0.432400000000     0.0459417  
H428     H      0.340920000000     0.699630000000     0.534820000000     0.0400082  
H429     H      0.353170000000     0.796780000000     0.552150000000     0.040701   
H430     H      0.384980000000     0.794060000000     0.426980000000     0.0404715  
H431     H      0.400290000000     0.949310000000     0.519990000000     0.0438237  
H432     H      0.337390000000     0.949310000000     0.519510000000     0.0436441  
H433     H      0.325950000000     0.997490000000     0.492260000000     0.0440348  
H434     H      0.411860000000     0.997420000000     0.492530000000     0.0440652  
H435     H      0.400240000000     0.044580000000     0.526620000000     0.0433914  
H436     H      0.337460000000     0.045570000000     0.464900000000     0.0436757  
H437     H      0.400280000000     0.950390000000     0.458210000000     0.0434115  
H438     H      0.337650000000     0.950420000000     0.457730000000     0.0436285  
H439     H      0.337730000000     0.044700000000     0.526700000000     0.0435122  
H440     H      0.400460000000     0.045410000000     0.464820000000     0.043992   
H441     H      0.335420000000     0.793040000000     0.977490000000     0.0454489  
H442     H      0.386960000000     0.795100000000     0.049020000000     0.0408337  
H443     H      0.401860000000     0.747440000000     0.047350000000     0.0444325  
H444     H      0.339280000000     0.745710000000     0.929830000000     0.0442882  
H445     H      0.339530000000     0.697830000000     0.959690000000     0.0404875  
H446     H      0.402940000000     0.699170000000     0.020360000000     0.0408911  
H447     H      0.352760000000     0.794200000000     0.926310000000     0.040692   
H448     H      0.404280000000     0.794290000000     0.997780000000     0.0457001  
H449     H      0.378500000000     0.700410000000     0.058250000000     0.0460319  
H450     H      0.364160000000     0.698580000000     0.922230000000     0.0454372  
H451     H      0.339280000000     0.857780000000     0.831980000000     0.0435395  
H452     H      0.401960000000     0.854820000000     0.833150000000     0.0434013  
H453     H      0.414480000000     0.869900000000     0.737520000000     0.0440724  
H454     H      0.328670000000     0.874070000000     0.737620000000     0.0439933  
H455     H      0.339200000000     0.858330000000     0.642940000000     0.0433804  
H456     H      0.403420000000     0.886120000000     0.641910000000     0.0432633  
H457     H      0.340730000000     0.888700000000     0.832290000000     0.0440124  
H458     H      0.403430000000     0.885740000000     0.833430000000     0.0433089  
H459     H      0.401900000000     0.855210000000     0.641670000000     0.0434532  
H460     H      0.340760000000     0.889250000000     0.643220000000     0.043944   
H461     H      0.397070000000     0.889400000000     0.331970000000     0.0439783  
H462     H      0.334440000000     0.885920000000     0.333120000000     0.0433833  
H463     H      0.323530000000     0.869470000000     0.237530000000     0.0441484  
H464     H      0.409300000000     0.874280000000     0.237620000000     0.0440066  
H465     H      0.397160000000     0.888800000000     0.142880000000     0.0440485  
H466     H      0.336250000000     0.854360000000     0.141980000000     0.0434865  
H467     H      0.398820000000     0.858500000000     0.332320000000     0.0435634  
H468     H      0.336130000000     0.855020000000     0.333500000000     0.043551   
H469     H      0.334480000000     0.885250000000     0.141610000000     0.0434204  
H470     H      0.398880000000     0.857890000000     0.143230000000     0.0434481  
H471     H      0.400160000000     0.044500000000     0.958060000000     0.0434691  
H472     H      0.337530000000     0.044710000000     0.957840000000     0.0435784  
H473     H      0.325730000000     0.996840000000     0.988200000000     0.0440641  
H474     H      0.411640000000     0.996690000000     0.988110000000     0.0440196  
H475     H      0.399970000000     0.949180000000     0.956590000000     0.0438211  
H476     H      0.337300000000     0.949100000000     0.018760000000     0.0437404  
H477     H      0.400230000000     0.044070000000     0.019870000000     0.0439884  
H478     H      0.337330000000     0.044320000000     0.019650000000     0.0436754  
H479     H      0.337230000000     0.949150000000     0.956940000000     0.043449   
H480     H      0.400090000000     0.949110000000     0.018410000000     0.043701   
N1       N      0.872990000000     0.370950000000     0.855330000000    -0.171449   
N2       N      0.871770000000     0.370740000000     0.622500000000    -0.171582   
N3       N      0.869350000000     0.366760000000     0.122420000000    -0.171409   
N4       N      0.870360000000     0.366520000000     0.355330000000    -0.171335   
N5       N      0.054380000000     0.368330000000     0.499380000000    -0.171471   
N6       N      0.937940000000     0.368220000000     0.488610000000    -0.171538   
N7       N      0.119690000000     0.371140000000     0.637040000000    -0.171424   
N8       N      0.121110000000     0.370960000000     0.869860000000    -0.171536   
N9       N      0.122800000000     0.366920000000     0.369930000000    -0.171488   
N10      N      0.121700000000     0.366690000000     0.137030000000    -0.171348   
N11      N      0.054520000000     0.368310000000     0.003010000000    -0.171494   
N12      N      0.938040000000     0.368240000000     0.993320000000    -0.171312   
N13      N      0.687850000000     0.370280000000     0.488800000000    -0.171442   
N14      N      0.804230000000     0.369130000000     0.490000000000    -0.171509   
N15      N      0.622910000000     0.438390000000     0.491980000000    -0.171284   
N16      N      0.622910000000     0.554890000000     0.501870000000    -0.171289   
N17      N      0.688000000000     0.372690000000     0.982680000000    -0.171232   
N18      N      0.804370000000     0.369910000000     0.984840000000    -0.171462   
N19      N      0.619640000000     0.555030000000     0.977990000000    -0.171233   
N20      N      0.620820000000     0.438470000000     0.983930000000    -0.17138    
N21      N      0.438020000000     0.621370000000     0.515400000000    -0.171365   
N22      N      0.554610000000     0.620030000000     0.516410000000    -0.171056   
N23      N      0.438100000000     0.622240000000     0.992510000000    -0.1714     
N24      N      0.554610000000     0.623530000000     0.987610000000    -0.171382   
N25      N      0.304400000000     0.372660000000     0.507440000000    -0.171365   
N26      N      0.188040000000     0.370110000000     0.506870000000    -0.1714     
N27      N      0.437760000000     0.373150000000     0.490390000000    -0.171286   
N28      N      0.554270000000     0.373410000000     0.483470000000    -0.17134    
N29      N      0.370630000000     0.439190000000     0.507170000000    -0.17137    
N30      N      0.369980000000     0.555730000000     0.512350000000    -0.171504   
N31      N      0.188250000000     0.369400000000     0.003500000000    -0.171419   
N32      N      0.304640000000     0.370110000000     0.007670000000    -0.171379   
N33      N      0.554710000000     0.371830000000     0.002300000000    -0.17113    
N34      N      0.438250000000     0.373080000000     0.012020000000    -0.171222   
N35      N      0.371430000000     0.554880000000     0.003150000000    -0.171386   
N36      N      0.369820000000     0.438340000000     0.007470000000    -0.171425   
N37      N      0.622730000000     0.804680000000     0.511410000000    -0.171349   
N38      N      0.619410000000     0.688320000000     0.517030000000    -0.171278   
N39      N      0.622930000000     0.804710000000     0.005060000000    -0.171352   
N40      N      0.623200000000     0.688550000000     0.989190000000    -0.171455   
N41      N      0.623480000000     0.872860000000     0.641590000000    -0.171712   
N42      N      0.624220000000     0.872310000000     0.874350000000    -0.171752   
N43      N      0.623440000000     0.870610000000     0.141560000000    -0.171546   
N44      N      0.624170000000     0.870020000000     0.374410000000    -0.171485   
N45      N      0.623120000000     0.188710000000     0.491820000000    -0.171329   
N46      N      0.618670000000     0.304900000000     0.479430000000    -0.171192   
N47      N      0.624760000000     0.055020000000     0.501300000000    -0.171363   
N48      N      0.624610000000     0.938420000000     0.505020000000    -0.17135    
N49      N      0.623500000000     0.188660000000     0.999390000000    -0.171337   
N50      N      0.620960000000     0.305060000000     0.000920000000    -0.171163   
N51      N      0.626250000000     0.123950000000     0.630590000000    -0.171384   
N52      N      0.626370000000     0.122930000000     0.863550000000    -0.171291   
N53      N      0.622160000000     0.120710000000     0.130710000000    -0.171594   
N54      N      0.622010000000     0.119820000000     0.363520000000    -0.171496   
N55      N      0.624750000000     0.054910000000     0.996320000000    -0.171354   
N56      N      0.624550000000     0.938450000000     0.008380000000    -0.171424   
N57      N      0.188140000000     0.624070000000     0.496010000000    -0.171287   
N58      N      0.304510000000     0.624280000000     0.500190000000    -0.17142    
N59      N      0.304570000000     0.620790000000     0.002930000000    -0.171422   
N60      N      0.188240000000     0.623030000000     0.999020000000    -0.171621   
N61      N      0.121630000000     0.623190000000     0.629780000000    -0.171517   
N62      N      0.122680000000     0.623920000000     0.862610000000    -0.171467   
N63      N      0.121160000000     0.624100000000     0.362550000000    -0.171731   
N64      N      0.120330000000     0.623260000000     0.129810000000    -0.171668   
N65      N      0.804200000000     0.621910000000     0.485360000000    -0.171365   
N66      N      0.688030000000     0.622880000000     0.500720000000    -0.171334   
N67      N      0.937940000000     0.622980000000     0.483890000000    -0.171367   
N68      N      0.054400000000     0.623370000000     0.495450000000    -0.171383   
N69      N      0.804410000000     0.621750000000     0.980500000000    -0.171613   
N70      N      0.688080000000     0.619740000000     0.976720000000    -0.171482   
N71      N      0.872390000000     0.622260000000     0.849970000000    -0.171678   
N72      N      0.871420000000     0.622930000000     0.617200000000    -0.171643   
N73      N      0.869840000000     0.623010000000     0.117150000000    -0.171582   
N74      N      0.870520000000     0.622160000000     0.349970000000    -0.171529   
N75      N      0.938070000000     0.623370000000     0.986630000000    -0.171563   
N76      N      0.054570000000     0.623840000000     0.993380000000    -0.171533   
N77      N      0.372120000000     0.305810000000     0.490310000000    -0.171323   
N78      N      0.370240000000     0.189430000000     0.491020000000    -0.171465   
N79      N      0.370170000000     0.188660000000     0.999830000000    -0.171543   
N80      N      0.373710000000     0.304790000000     0.013870000000    -0.171317   
N81      N      0.367270000000     0.124220000000     0.860470000000    -0.171344   
N82      N      0.367330000000     0.124030000000     0.627500000000    -0.171354   
N83      N      0.371570000000     0.119650000000     0.127530000000    -0.171509   
N84      N      0.371600000000     0.121070000000     0.360350000000    -0.171455   
N85      N      0.368970000000     0.805500000000     0.488540000000    -0.171507   
N86      N      0.372050000000     0.689360000000     0.502330000000    -0.171533   
N87      N      0.368990000000     0.055720000000     0.495930000000    -0.171475   
N88      N      0.368900000000     0.939210000000     0.488320000000    -0.171442   
N89      N      0.371280000000     0.688390000000     0.990820000000    -0.171499   
N90      N      0.369660000000     0.804770000000     0.987610000000    -0.171685   
N91      N      0.371200000000     0.872260000000     0.621150000000    -0.171678   
N92      N      0.371240000000     0.871720000000     0.853990000000    -0.171513   
N93      N      0.366820000000     0.871550000000     0.121130000000    -0.171463   
N94      N      0.366720000000     0.872250000000     0.354010000000    -0.171405   
N95      N      0.368650000000     0.938480000000     0.987670000000    -0.171557   
N96      N      0.368850000000     0.055050000000     0.989370000000    -0.171508   
Ni1      Ni     0.348620000000     0.871430000000     0.985840000000     0.998471   
Ni2      Ni     0.389440000000     0.871740000000     0.989250000000     1.00293    
Ni3      Ni     0.348540000000     0.872300000000     0.489340000000     1.00136    
Ni4      Ni     0.389360000000     0.872310000000     0.485850000000     1.00043    
Ni5      Ni     0.348980000000     0.122070000000     0.995720000000     0.998183   
Ni6      Ni     0.389800000000     0.121750000000     0.992350000000     1.00281    
Ni7      Ni     0.349050000000     0.122780000000     0.492230000000     0.997955   
Ni8      Ni     0.389880000000     0.122440000000     0.495550000000     1.00292    
Ni9      Ni     0.870960000000     0.643090000000     0.982900000000     0.999313   
Ni10     Ni     0.871430000000     0.602220000000     0.984190000000     1.00338    
Ni11     Ni     0.870850000000     0.642960000000     0.482960000000     0.999549   
Ni12     Ni     0.871200000000     0.602090000000     0.484230000000     1.00194    
Ni13     Ni     0.121560000000     0.644010000000     0.996850000000     0.998843   
Ni14     Ni     0.121330000000     0.603140000000     0.995620000000     1.00379    
Ni15     Ni     0.121210000000     0.644090000000     0.496850000000     1.00191    
Ni16     Ni     0.121420000000     0.603220000000     0.495430000000     0.999949   
Ni17     Ni     0.644700000000     0.122000000000     0.998810000000     0.996648   
Ni18     Ni     0.603880000000     0.121650000000     0.995550000000     1.0032     
Ni19     Ni     0.644540000000     0.122120000000     0.495350000000     0.996719   
Ni20     Ni     0.603720000000     0.121700000000     0.498690000000     1.00325    
Ni21     Ni     0.644260000000     0.871270000000     0.008560000000     0.999378   
Ni22     Ni     0.603400000000     0.871790000000     0.007310000000     1.00266    
Ni23     Ni     0.644260000000     0.871230000000     0.508640000000     0.997869   
Ni24     Ni     0.603400000000     0.871780000000     0.507400000000     1.0037     
Ni25     Ni     0.370850000000     0.372160000000     0.051340000000     0.991801   
Ni26     Ni     0.371950000000     0.370860000000     0.969980000000     1.00579    
Ni27     Ni     0.372490000000     0.371020000000     0.539370000000     0.997014   
Ni28     Ni     0.369570000000     0.373880000000     0.458390000000     0.999394   
Ni29     Ni     0.370300000000     0.620550000000     0.956820000000     1.00057    
Ni30     Ni     0.372260000000     0.622830000000     0.038040000000     0.997796   
Ni31     Ni     0.372510000000     0.621630000000     0.467520000000     1.01248    
Ni32     Ni     0.369880000000     0.623590000000     0.548950000000     0.990988   
Ni33     Ni     0.623030000000     0.373170000000     0.032860000000     0.998817   
Ni34     Ni     0.619770000000     0.370280000000     0.951940000000     0.996727   
Ni35     Ni     0.620480000000     0.370490000000     0.526190000000     1.00387    
Ni36     Ni     0.621730000000     0.372710000000     0.444930000000     0.992185   
Ni37     Ni     0.622390000000     0.620780000000     0.023120000000     1.00475    
Ni38     Ni     0.620420000000     0.622940000000     0.941910000000     0.992335   
Ni39     Ni     0.622810000000     0.620360000000     0.549910000000     0.991426   
Ni40     Ni     0.619980000000     0.622950000000     0.468860000000     1.00383    
Ni41     Ni     0.121590000000     0.348380000000     0.001770000000     0.998428   
Ni42     Ni     0.121260000000     0.389200000000     0.005100000000     1.00203    
Ni43     Ni     0.121490000000     0.348630000000     0.505150000000     0.997308   
Ni44     Ni     0.121000000000     0.389450000000     0.501860000000     1.00351    
Ni45     Ni     0.870940000000     0.348460000000     0.987210000000     0.996625   
Ni46     Ni     0.871390000000     0.389280000000     0.990480000000     1.00349    
Ni47     Ni     0.870910000000     0.348180000000     0.490590000000     0.998625   
Ni48     Ni     0.871180000000     0.389010000000     0.487300000000     1.00283    
O1       O      0.349710000000     0.904260000000     0.987960000000    -0.448853   
O2       O      0.350330000000     0.838630000000     0.982950000000    -0.448735   
O3       O      0.348740000000     0.870430000000     0.051660000000    -0.447336   
O4       O      0.351220000000     0.872480000000     0.920770000000    -0.451199   
O5       O      0.389340000000     0.870800000000     0.923440000000    -0.448132   
O6       O      0.386830000000     0.872660000000     0.054350000000    -0.451483   
O7       O      0.388240000000     0.838980000000     0.991960000000    -0.450514   
O8       O      0.387890000000     0.904490000000     0.987290000000    -0.450634   
O9       O      0.349830000000     0.905090000000     0.487270000000    -0.449806   
O10      O      0.350020000000     0.839540000000     0.492310000000    -0.4498     
O11      O      0.351170000000     0.873320000000     0.554410000000    -0.45165    
O12      O      0.348640000000     0.871280000000     0.423510000000    -0.447735   
O13      O      0.386740000000     0.873320000000     0.420780000000    -0.451245   
O14      O      0.389260000000     0.871300000000     0.551660000000    -0.447972   
O15      O      0.387920000000     0.839520000000     0.482990000000    -0.449318   
O16      O      0.388010000000     0.905100000000     0.488020000000    -0.449596   
O17      O      0.350000000000     0.089310000000     0.991260000000    -0.448946   
O18      O      0.350740000000     0.154780000000     0.001060000000    -0.448632   
O19      O      0.349140000000     0.124250000000     0.929980000000    -0.447185   
O20      O      0.351550000000     0.119850000000     0.060710000000    -0.450713   
O21      O      0.389670000000     0.121500000000     0.058170000000    -0.448255   
O22      O      0.387220000000     0.122030000000     0.927220000000    -0.451457   
O23      O      0.388660000000     0.154540000000     0.992120000000    -0.450482   
O24      O      0.388180000000     0.088980000000     0.991920000000    -0.450305   
O25      O      0.350100000000     0.089980000000     0.495550000000    -0.448594   
O26      O      0.350800000000     0.155560000000     0.488060000000    -0.448193   
O27      O      0.351600000000     0.121100000000     0.427190000000    -0.450982   
O28      O      0.349210000000     0.124420000000     0.558010000000    -0.447147   
O29      O      0.387300000000     0.122230000000     0.560700000000    -0.451255   
O30      O      0.389730000000     0.122670000000     0.429710000000    -0.447982   
O31      O      0.388730000000     0.155220000000     0.496810000000    -0.450596   
O32      O      0.388290000000     0.089680000000     0.494940000000    -0.450435   
O33      O      0.903760000000     0.642130000000     0.985960000000    -0.449182   
O34      O      0.838210000000     0.641280000000     0.978880000000    -0.449191   
O35      O      0.869490000000     0.641960000000     0.048630000000    -0.448062   
O36      O      0.872460000000     0.641490000000     0.917720000000    -0.450987   
O37      O      0.871340000000     0.603320000000     0.918430000000    -0.448979   
O38      O      0.871490000000     0.603830000000     0.049430000000    -0.451566   
O39      O      0.838640000000     0.603230000000     0.985300000000    -0.4506     
O40      O      0.904190000000     0.603960000000     0.984020000000    -0.450516   
O41      O      0.903690000000     0.641860000000     0.484270000000    -0.449032   
O42      O      0.838040000000     0.641290000000     0.480810000000    -0.448813   
O43      O      0.870270000000     0.641850000000     0.548710000000    -0.448545   
O44      O      0.871450000000     0.641370000000     0.417730000000    -0.45082    
O45      O      0.870220000000     0.603200000000     0.418470000000    -0.448445   
O46      O      0.872160000000     0.603710000000     0.549450000000    -0.451234   
O47      O      0.838430000000     0.603240000000     0.487210000000    -0.450027   
O48      O      0.903970000000     0.603690000000     0.482310000000    -0.450036   
O49      O      0.088760000000     0.642840000000     0.993900000000    -0.448862   
O50      O      0.154340000000     0.642400000000     0.000780000000    -0.448607   
O51      O      0.122980000000     0.642870000000     0.931120000000    -0.448028   
O52      O      0.120120000000     0.642440000000     0.062010000000    -0.451037   
O53      O      0.121460000000     0.604280000000     0.061380000000    -0.449098   
O54      O      0.121230000000     0.604720000000     0.930360000000    -0.451303   
O55      O      0.154100000000     0.604350000000     0.994430000000    -0.450946   
O56      O      0.088570000000     0.604660000000     0.995890000000    -0.450711   
O57      O      0.088430000000     0.642590000000     0.495190000000    -0.449943   
O58      O      0.153990000000     0.642840000000     0.499430000000    -0.449758   
O59      O      0.121980000000     0.643020000000     0.431080000000    -0.448735   
O60      O      0.120460000000     0.642430000000     0.562070000000    -0.451114   
O61      O      0.122300000000     0.604290000000     0.561210000000    -0.448204   
O62      O      0.120530000000     0.604870000000     0.430260000000    -0.451581   
O63      O      0.154220000000     0.604800000000     0.492600000000    -0.448722   
O64      O      0.088600000000     0.604420000000     0.497190000000    -0.449152   
O65      O      0.643660000000     0.089170000000     0.995850000000    -0.448136   
O66      O      0.642950000000     0.154790000000     0.002620000000    -0.447855   
O67      O      0.642160000000     0.120500000000     0.063880000000    -0.450761   
O68      O      0.644520000000     0.123460000000     0.933000000000    -0.446863   
O69      O      0.606430000000     0.121210000000     0.930400000000    -0.451294   
O70      O      0.604040000000     0.122110000000     0.061350000000    -0.44842    
O71      O      0.605020000000     0.154430000000     0.993850000000    -0.450477   
O72      O      0.605480000000     0.088890000000     0.996670000000    -0.450497   
O73      O      0.643590000000     0.089320000000     0.499530000000    -0.448055   
O74      O      0.642690000000     0.154880000000     0.490280000000    -0.447713   
O75      O      0.644370000000     0.124170000000     0.561090000000    -0.446969   
O76      O      0.642000000000     0.120030000000     0.430360000000    -0.450826   
O77      O      0.603870000000     0.121540000000     0.432860000000    -0.44815    
O78      O      0.606290000000     0.121890000000     0.563830000000    -0.451527   
O79      O      0.604770000000     0.154490000000     0.499090000000    -0.450558   
O80      O      0.605410000000     0.088940000000     0.498940000000    -0.450404   
O81      O      0.643310000000     0.904120000000     0.007590000000    -0.448912   
O82      O      0.642430000000     0.838460000000     0.010310000000    -0.448679   
O83      O      0.643140000000     0.870890000000     0.942810000000    -0.448677   
O84      O      0.642660000000     0.871690000000     0.073820000000    -0.450854   
O85      O      0.604500000000     0.870550000000     0.073040000000    -0.44857    
O86      O      0.605020000000     0.873000000000     0.942110000000    -0.451415   
O87      O      0.604390000000     0.839030000000     0.003770000000    -0.449944   
O88      O      0.605150000000     0.904540000000     0.009760000000    -0.450136   
O89      O      0.643350000000     0.904060000000     0.505490000000    -0.448313   
O90      O      0.642390000000     0.838450000000     0.512780000000    -0.447989   
O91      O      0.643120000000     0.869710000000     0.442930000000    -0.448027   
O92      O      0.642680000000     0.872790000000     0.573810000000    -0.450942   
O93      O      0.604520000000     0.871760000000     0.573160000000    -0.449087   
O94      O      0.604990000000     0.871770000000     0.442140000000    -0.451125   
O95      O      0.604340000000     0.838990000000     0.506460000000    -0.450536   
O96      O      0.605190000000     0.904540000000     0.507480000000    -0.450581   
O97      O      0.369430000000     0.339210000000     0.050020000000    -0.446311   
O98      O      0.371840000000     0.404800000000     0.047070000000    -0.449112   
O99      O      0.338150000000     0.373610000000     0.046880000000    -0.447809   
O100     O      0.403880000000     0.371160000000     0.049940000000    -0.444619   
O101     O      0.404370000000     0.373650000000     0.973850000000    -0.453323   
O102     O      0.339200000000     0.367680000000     0.971600000000    -0.449525   
O103     O      0.369240000000     0.403680000000     0.971010000000    -0.448764   
O104     O      0.375180000000     0.338380000000     0.974660000000    -0.451475   
O105     O      0.375050000000     0.338610000000     0.531830000000    -0.450334   
O106     O      0.370250000000     0.403900000000     0.541340000000    -0.446685   
O107     O      0.339610000000     0.368410000000     0.540510000000    -0.446592   
O108     O      0.404940000000     0.373420000000     0.532460000000    -0.44991    
O109     O      0.402460000000     0.372140000000     0.456400000000    -0.44726    
O110     O      0.337140000000     0.375950000000     0.465930000000    -0.450781   
O111     O      0.371470000000     0.406340000000     0.465270000000    -0.450654   
O112     O      0.367450000000     0.340970000000     0.457270000000    -0.447019   
O113     O      0.367850000000     0.653400000000     0.956650000000    -0.448304   
O114     O      0.372360000000     0.588070000000     0.962470000000    -0.451392   
O115     O      0.337790000000     0.618110000000     0.962690000000    -0.450466   
O116     O      0.403210000000     0.622580000000     0.956750000000    -0.447242   
O117     O      0.404790000000     0.621150000000     0.032900000000    -0.450571   
O118     O      0.339360000000     0.624870000000     0.037660000000    -0.447525   
O119     O      0.370650000000     0.589870000000     0.038580000000    -0.446694   
O120     O      0.374290000000     0.655370000000     0.031700000000    -0.449581   
O121     O      0.373580000000     0.654480000000     0.467450000000    -0.451366   
O122     O      0.371750000000     0.589150000000     0.472820000000    -0.454974   
O123     O      0.339600000000     0.621790000000     0.466250000000    -0.450008   
O124     O      0.404990000000     0.621100000000     0.474200000000    -0.453589   
O125     O      0.402880000000     0.622960000000     0.550260000000    -0.44568    
O126     O      0.337310000000     0.624630000000     0.542190000000    -0.449024   
O127     O      0.369340000000     0.590530000000     0.548880000000    -0.445099   
O128     O      0.370080000000     0.656270000000     0.543340000000    -0.448194   
O129     O      0.655390000000     0.375630000000     0.024710000000    -0.450673   
O130     O      0.590190000000     0.371060000000     0.035520000000    -0.447374   
O131     O      0.625530000000     0.340270000000     0.033940000000    -0.44629    
O132     O      0.620710000000     0.405630000000     0.025960000000    -0.450046   
O133     O      0.621640000000     0.403170000000     0.949890000000    -0.446894   
O134     O      0.617580000000     0.337850000000     0.959530000000    -0.450257   
O135     O      0.587320000000     0.372350000000     0.959520000000    -0.44955    
O136     O      0.652680000000     0.368010000000     0.950200000000    -0.446119   
O137     O      0.653250000000     0.367270000000     0.524650000000    -0.448643   
O138     O      0.588030000000     0.373400000000     0.522150000000    -0.452293   
O139     O      0.617180000000     0.338080000000     0.520010000000    -0.451131   
O140     O      0.623270000000     0.403300000000     0.526740000000    -0.448482   
O141     O      0.620750000000     0.405320000000     0.450750000000    -0.44859    
O142     O      0.623120000000     0.339720000000     0.444780000000    -0.445491   
O143     O      0.588720000000     0.371720000000     0.445980000000    -0.44524    
O144     O      0.654380000000     0.374080000000     0.449670000000    -0.448787   
O145     O      0.625690000000     0.653490000000     0.023160000000    -0.449958   
O146     O      0.619450000000     0.588440000000     0.017680000000    -0.453522   
O147     O      0.654850000000     0.617530000000     0.017130000000    -0.450407   
O148     O      0.589530000000     0.623600000000     0.023280000000    -0.447625   
O149     O      0.587870000000     0.621900000000     0.947170000000    -0.45018    
O150     O      0.653330000000     0.624330000000     0.942180000000    -0.447281   
O151     O      0.621400000000     0.589860000000     0.941580000000    -0.443892   
O152     O      0.619060000000     0.655610000000     0.948200000000    -0.446966   
O153     O      0.624330000000     0.653320000000     0.550560000000    -0.44591    
O154     O      0.621590000000     0.587810000000     0.543620000000    -0.448949   
O155     O      0.655370000000     0.618900000000     0.542530000000    -0.447779   
O156     O      0.589770000000     0.621490000000     0.551470000000    -0.444106   
O157     O      0.587650000000     0.620060000000     0.475380000000    -0.4525     
O158     O      0.652740000000     0.626100000000     0.467840000000    -0.449034   
O159     O      0.622690000000     0.590110000000     0.467520000000    -0.447846   
O160     O      0.616890000000     0.655350000000     0.475900000000    -0.450815   
O161     O      0.088770000000     0.349430000000     0.003920000000    -0.448814   
O162     O      0.154380000000     0.350110000000     0.998810000000    -0.448827   
O163     O      0.122650000000     0.348540000000     0.067600000000    -0.447156   
O164     O      0.120510000000     0.350940000000     0.936670000000    -0.450942   
O165     O      0.122180000000     0.389060000000     0.939290000000    -0.448234   
O166     O      0.120340000000     0.386640000000     0.070190000000    -0.45137    
O167     O      0.154040000000     0.388020000000     0.007840000000    -0.450011   
O168     O      0.088500000000     0.387610000000     0.003080000000    -0.449921   
O169     O      0.088690000000     0.349550000000     0.501320000000    -0.448565   
O170     O      0.154250000000     0.350510000000     0.509690000000    -0.448043   
O171     O      0.119630000000     0.351160000000     0.570170000000    -0.450894   
O172     O      0.123310000000     0.348810000000     0.439400000000    -0.447395   
O173     O      0.120920000000     0.386890000000     0.436710000000    -0.451411   
O174     O      0.121100000000     0.389300000000     0.567680000000    -0.448146   
O175     O      0.153770000000     0.388440000000     0.500880000000    -0.450974   
O176     O      0.088250000000     0.387730000000     0.502100000000    -0.450582   
O177     O      0.903740000000     0.349410000000     0.991270000000    -0.448177   
O178     O      0.838180000000     0.350310000000     0.982420000000    -0.447606   
O179     O      0.872930000000     0.350980000000     0.922200000000    -0.450781   
O180     O      0.869000000000     0.348650000000     0.052950000000    -0.44733    
O181     O      0.871330000000     0.386730000000     0.055630000000    -0.45137    
O182     O      0.871420000000     0.389120000000     0.924650000000    -0.448161   
O183     O      0.838620000000     0.388250000000     0.991160000000    -0.450778   
O184     O      0.904140000000     0.387590000000     0.990500000000    -0.45069    
O185     O      0.903720000000     0.349280000000     0.488020000000    -0.448948   
O186     O      0.838140000000     0.349860000000     0.493980000000    -0.448939   
O187     O      0.869650000000     0.348360000000     0.424770000000    -0.447255   
O188     O      0.872200000000     0.350730000000     0.555680000000    -0.451028   
O189     O      0.870490000000     0.388850000000     0.553100000000    -0.448363   
O190     O      0.871860000000     0.386460000000     0.422180000000    -0.451387   
O191     O      0.838410000000     0.387780000000     0.485070000000    -0.450301   
O192     O      0.903940000000     0.387460000000     0.488850000000    -0.450407   


