data_structure

_audit_creation_method RASPA-1.0
_audit_creation_date 2023-5-23
_audit_author_name 'Poobodin Mano'

_cell_length_a    29.2288
_cell_length_b    29.2134
_cell_length_c    29.1913
_cell_angle_alpha 90
_cell_angle_beta  89.9969
_cell_angle_gamma 90
_cell_volume      24925.7

_symmetry_cell_setting          triclinic
_symmetry_space_group_name_Hall 'P 1'
_symmetry_space_group_name_H-M  'P 1'
_symmetry_Int_Tables_number     1

_symmetry_equiv_pos_as_xyz 'x,y,z'

loop_
_atom_site_label
_atom_site_type_symbol
_atom_site_fract_x
_atom_site_fract_y
_atom_site_fract_z
_atom_site_charge
C1       C      0.996120000000     0.996350000000     0.583660000000     0.432516   
C2       C      0.996010000000     0.996230000000     0.409230000000     0.432559   
C3       C      0.002640000000     0.083310000000     0.496380000000     0.431455   
C4       C      0.989500000000     0.909280000000     0.496510000000     0.43125    
C5       C      0.996110000000     0.496240000000     0.584000000000     0.432959   
C6       C      0.996060000000     0.496340000000     0.409570000000     0.432721   
C7       C      0.989530000000     0.583310000000     0.496830000000     0.43122    
C8       C      0.002640000000     0.409270000000     0.496730000000     0.431559   
C9       C      0.495840000000     0.996040000000     0.409860000000     0.432979   
C10      C      0.495800000000     0.996050000000     0.584290000000     0.433015   
C11      C      0.499880000000     0.083150000000     0.497090000000     0.431985   
C12      C      0.491770000000     0.908940000000     0.497110000000     0.432095   
C13      C      0.495840000000     0.496010000000     0.582580000000     0.431651   
C14      C      0.495860000000     0.496090000000     0.408290000000     0.431776   
C15      C      0.498560000000     0.408960000000     0.495450000000     0.431347   
C16      C      0.493130000000     0.583120000000     0.495540000000     0.431346   
C17      C      0.995880000000     0.996090000000     0.909230000000     0.43262    
C18      C      0.995710000000     0.995970000000     0.083660000000     0.432528   
C19      C      0.908640000000     0.994760000000     0.996370000000     0.431631   
C20      C      0.082940000000     0.997300000000     0.996530000000     0.431633   
C21      C      0.996080000000     0.496250000000     0.909580000000     0.432996   
C22      C      0.996060000000     0.496280000000     0.084000000000     0.432866   
C23      C      0.908960000000     0.500200000000     0.996820000000     0.431572   
C24      C      0.083180000000     0.492340000000     0.996820000000     0.431467   
C25      C      0.495850000000     0.996030000000     0.084280000000     0.432772   
C26      C      0.495730000000     0.995980000000     0.909850000000     0.432839   
C27      C      0.582940000000     0.997350000000     0.996990000000     0.431605   
C28      C      0.408640000000     0.994670000000     0.997120000000     0.431587   
C29      C      0.496090000000     0.496240000000     0.908290000000     0.431744   
C30      C      0.496030000000     0.496230000000     0.082580000000     0.431636   
C31      C      0.408980000000     0.493620000000     0.995460000000     0.430717   
C32      C      0.583150000000     0.498870000000     0.995510000000     0.430821   
C33      C      0.834640000000     0.543280000000     0.995080000000    -0.0205464  
C34      C      0.658230000000     0.458930000000     0.998500000000    -0.0207051  
C35      C      0.657080000000     0.541960000000     0.993210000000    -0.0204394  
C36      C      0.704930000000     0.524810000000     0.994810000000     0.0124119  
C37      C      0.705370000000     0.477450000000     0.997590000000     0.0137927  
C38      C      0.746340000000     0.452790000000     0.999070000000    -0.0665226  
C39      C      0.834220000000     0.460160000000     0.998710000000    -0.0204439  
C40      C      0.745740000000     0.550210000000     0.993830000000    -0.0650443  
C41      C      0.786970000000     0.478070000000     0.997880000000     0.0135994  
C42      C      0.786900000000     0.525460000000     0.995560000000     0.0125725  
C43      C      0.333910000000     0.533570000000     0.998430000000    -0.0207321  
C44      C      0.157490000000     0.449240000000     0.995070000000    -0.020648   
C45      C      0.157920000000     0.532360000000     0.998690000000    -0.0203984  
C46      C      0.205170000000     0.514450000000     0.997840000000     0.0135624  
C47      C      0.205230000000     0.467060000000     0.995530000000     0.0126267  
C48      C      0.246390000000     0.442300000000     0.993790000000    -0.0650786  
C49      C      0.335050000000     0.450530000000     0.993140000000    -0.0205     
C50      C      0.245810000000     0.539720000000     0.999020000000    -0.0665126  
C51      C      0.287200000000     0.467690000000     0.994750000000     0.0124499  
C52      C      0.286770000000     0.515060000000     0.997520000000     0.0138004  
C53      C      0.833760000000     0.953210000000     0.996410000000    -0.020584   
C54      C      0.657810000000     0.038930000000     0.996830000000    -0.0205848  
C55      C      0.657060000000     0.955720000000     0.996880000000    -0.0201223  
C56      C      0.704650000000     0.972970000000     0.996730000000     0.0124995  
C57      C      0.705170000000     0.020420000000     0.996710000000     0.0136636  
C58      C      0.746400000000     0.044860000000     0.996590000000    -0.0659633  
C59      C      0.834530000000     0.036430000000     0.996380000000    -0.0202152  
C60      C      0.745180000000     0.947290000000     0.996630000000    -0.0655059  
C61      C      0.786930000000     0.019180000000     0.996490000000     0.0132884  
C62      C      0.786410000000     0.971730000000     0.996510000000     0.0128976  
C63      C      0.334520000000     0.036310000000     0.997120000000    -0.0202884  
C64      C      0.157050000000     0.955620000000     0.996630000000    -0.0200893  
C65      C      0.157830000000     0.038830000000     0.996700000000    -0.0206432  
C66      C      0.205180000000     0.020310000000     0.996810000000     0.0137814  
C67      C      0.204650000000     0.972860000000     0.996770000000     0.0124061  
C68      C      0.245170000000     0.947170000000     0.996850000000    -0.0654316  
C69      C      0.333770000000     0.953100000000     0.997060000000    -0.0204354  
C70      C      0.246410000000     0.044740000000     0.996930000000    -0.066032   
C71      C      0.286410000000     0.971610000000     0.996980000000     0.0127366  
C72      C      0.286930000000     0.019050000000     0.997020000000     0.013423   
C73      C      0.463350000000     0.470200000000     0.333830000000    -0.0207619  
C74      C      0.520080000000     0.530140000000     0.157040000000    -0.0208171  
C75      C      0.471860000000     0.462310000000     0.156990000000    -0.020849   
C76      C      0.480850000000     0.477910000000     0.204520000000     0.0138003  
C77      C      0.511010000000     0.514520000000     0.204550000000     0.013801   
C78      C      0.529430000000     0.531630000000     0.245460000000    -0.0657742  
C79      C      0.528390000000     0.522100000000     0.333880000000    -0.020847   
C80      C      0.462390000000     0.460760000000     0.245400000000    -0.0657575  
C81      C      0.513320000000     0.512250000000     0.286340000000     0.0138137  
C82      C      0.478440000000     0.480110000000     0.286310000000     0.0137739  
C83      C      0.529760000000     0.471890000000     0.657000000000    -0.0207848  
C84      C      0.470150000000     0.528770000000     0.833850000000    -0.0208591  
C85      C      0.521990000000     0.463670000000     0.833860000000    -0.0207655  
C86      C      0.512080000000     0.478710000000     0.786330000000     0.0137785  
C87      C      0.479960000000     0.513630000000     0.786330000000     0.0138282  
C88      C      0.460560000000     0.529660000000     0.745440000000    -0.0657704  
C89      C      0.461970000000     0.520140000000     0.657020000000    -0.0208221  
C90      C      0.531370000000     0.462570000000     0.745430000000    -0.0657406  
C91      C      0.477630000000     0.511170000000     0.704540000000     0.0138001  
C92      C      0.514210000000     0.480980000000     0.704530000000     0.0137771  
C93      C      0.462930000000     0.021480000000     0.335460000000    -0.0207066  
C94      C      0.520090000000     0.962200000000     0.158670000000    -0.0207046  
C95      C      0.471650000000     0.029880000000     0.158670000000    -0.0207302  
C96      C      0.480670000000     0.014260000000     0.206180000000     0.0142806  
C97      C      0.511060000000     0.977830000000     0.206180000000     0.0134515  
C98      C      0.529710000000     0.960920000000     0.247070000000    -0.0655457  
C99      C      0.528770000000     0.970590000000     0.335470000000    -0.0206789  
C100     C      0.462010000000     0.031160000000     0.247070000000    -0.0660116  
C101     C      0.513490000000     0.980180000000     0.287950000000     0.0134412  
C102     C      0.478210000000     0.011890000000     0.287950000000     0.0142833  
C103     C      0.471250000000     0.029640000000     0.835470000000    -0.020733   
C104     C      0.528940000000     0.970900000000     0.658680000000    -0.0206261  
C105     C      0.462630000000     0.021170000000     0.658670000000    -0.020702   
C106     C      0.477980000000     0.011710000000     0.706180000000     0.0142936  
C107     C      0.513540000000     0.980320000000     0.706190000000     0.0134297  
C108     C      0.529890000000     0.961160000000     0.747070000000    -0.0655243  
C109     C      0.520180000000     0.962320000000     0.835460000000    -0.0206281  
C110     C      0.461600000000     0.030840000000     0.747070000000    -0.0660163  
C111     C      0.511070000000     0.977900000000     0.787950000000     0.0134179  
C112     C      0.480390000000     0.014080000000     0.787950000000     0.0142983  
C113     C      0.448640000000     0.834630000000     0.495340000000    -0.0204244  
C114     C      0.533000000000     0.658210000000     0.498600000000    -0.0204714  
C115     C      0.450010000000     0.657030000000     0.493270000000    -0.0201376  
C116     C      0.467130000000     0.704900000000     0.494940000000     0.0123501  
C117     C      0.514470000000     0.705340000000     0.497740000000     0.0138048  
C118     C      0.539100000000     0.746320000000     0.499280000000    -0.0663834  
C119     C      0.531730000000     0.834190000000     0.499000000000    -0.0202496  
C120     C      0.441720000000     0.745710000000     0.494000000000    -0.0650726  
C121     C      0.513820000000     0.786950000000     0.498130000000     0.0136068  
C122     C      0.466460000000     0.786880000000     0.495790000000     0.012551   
C123     C      0.543010000000     0.157450000000     0.495300000000    -0.0203378  
C124     C      0.458680000000     0.333880000000     0.498470000000    -0.0204548  
C125     C      0.541680000000     0.335050000000     0.493160000000    -0.0202841  
C126     C      0.524550000000     0.287190000000     0.494830000000     0.0123885  
C127     C      0.477210000000     0.286750000000     0.497620000000     0.013808   
C128     C      0.452560000000     0.245770000000     0.499180000000    -0.0664305  
C129     C      0.459920000000     0.157900000000     0.498940000000    -0.0202983  
C130     C      0.549940000000     0.246370000000     0.493910000000    -0.0650336  
C131     C      0.477840000000     0.205140000000     0.498050000000     0.0136648  
C132     C      0.525200000000     0.205200000000     0.495720000000     0.0125116  
C133     C      0.028920000000     0.521850000000     0.335180000000    -0.0206935  
C134     C      0.971740000000     0.462530000000     0.158410000000    -0.020699   
C135     C      0.020380000000     0.530070000000     0.158390000000    -0.0207386  
C136     C      0.011280000000     0.514500000000     0.205900000000     0.0140701  
C137     C      0.980830000000     0.478120000000     0.205910000000     0.0136385  
C138     C      0.962180000000     0.461220000000     0.246800000000    -0.0656178  
C139     C      0.963170000000     0.470850000000     0.335190000000    -0.0206431  
C140     C      0.029920000000     0.531430000000     0.246780000000    -0.0658894  
C141     C      0.978420000000     0.480470000000     0.287680000000     0.0136238  
C142     C      0.013680000000     0.512200000000     0.287670000000     0.0140474  
C143     C      0.020710000000     0.529790000000     0.835180000000    -0.0207355  
C144     C      0.963060000000     0.470960000000     0.658400000000    -0.0206462  
C145     C      0.029180000000     0.521490000000     0.658400000000    -0.0207397  
C146     C      0.013870000000     0.511950000000     0.705910000000     0.0140459  
C147     C      0.978360000000     0.480500000000     0.705910000000     0.0136253  
C148     C      0.961960000000     0.461400000000     0.746790000000    -0.0656435  
C149     C      0.971470000000     0.462690000000     0.835180000000    -0.0207003  
C150     C      0.030260000000     0.531050000000     0.746790000000    -0.0658533  
C151     C      0.980720000000     0.478180000000     0.787670000000     0.013641   
C152     C      0.011490000000     0.514290000000     0.787670000000     0.0140334  
C153     C      0.019650000000     0.961940000000     0.158050000000    -0.020614   
C154     C      0.963270000000     0.021940000000     0.334850000000    -0.020662   
C155     C      0.028600000000     0.970390000000     0.334820000000    -0.020659   
C156     C      0.013350000000     0.980080000000     0.287320000000     0.01363    
C157     C      0.978380000000     0.012120000000     0.287330000000     0.0140777  
C158     C      0.962280000000     0.031480000000     0.246450000000    -0.0658635  
C159     C      0.971750000000     0.030000000000     0.158050000000    -0.0206493  
C160     C      0.029340000000     0.960630000000     0.246440000000    -0.0656032  
C161     C      0.980710000000     0.014340000000     0.205560000000     0.0140798  
C162     C      0.010790000000     0.977660000000     0.205560000000     0.0136045  
C163     C      0.972010000000     0.030200000000     0.834850000000    -0.0207091  
C164     C      0.028780000000     0.970570000000     0.658050000000    -0.0205948  
C165     C      0.963470000000     0.022140000000     0.658050000000    -0.0206409  
C166     C      0.978610000000     0.012340000000     0.705560000000     0.0141002  
C167     C      0.013580000000     0.980290000000     0.705560000000     0.0135908  
C168     C      0.029570000000     0.960830000000     0.746440000000    -0.0655875  
C169     C      0.019890000000     0.962120000000     0.834820000000    -0.0206263  
C170     C      0.962530000000     0.031700000000     0.746450000000    -0.0659051  
C171     C      0.011050000000     0.977870000000     0.787320000000     0.0136063  
C172     C      0.980970000000     0.014560000000     0.787330000000     0.0141053  
C173     C      0.027980000000     0.833950000000     0.496590000000    -0.0204089  
C174     C      0.944870000000     0.657050000000     0.496820000000    -0.0203549  
C175     C      0.028000000000     0.658640000000     0.496830000000    -0.0203025  
C176     C      0.009420000000     0.705560000000     0.496780000000     0.0142998  
C177     C      0.962010000000     0.705180000000     0.496780000000     0.0117765  
C178     C      0.936850000000     0.746280000000     0.496720000000    -0.0643076  
C179     C      0.944850000000     0.835520000000     0.496610000000    -0.0203109  
C180     C      0.034350000000     0.746300000000     0.496720000000    -0.067005   
C181     C      0.962000000000     0.787400000000     0.496670000000     0.0117272  
C182     C      0.009410000000     0.787030000000     0.496670000000     0.0143468  
C183     C      0.964160000000     0.158640000000     0.496400000000    -0.0204377  
C184     C      0.047290000000     0.335530000000     0.496620000000    -0.0204433  
C185     C      0.964160000000     0.333940000000     0.496670000000    -0.0203593  
C186     C      0.982740000000     0.287030000000     0.496580000000     0.0139288  
C187     C      0.030150000000     0.287400000000     0.496560000000     0.0121703  
C188     C      0.055300000000     0.246290000000     0.496480000000    -0.0645359  
C189     C      0.047290000000     0.157060000000     0.496370000000    -0.0204334  
C190     C      0.957800000000     0.246290000000     0.496520000000    -0.0667791  
C191     C      0.030150000000     0.205180000000     0.496430000000     0.0121624  
C192     C      0.982740000000     0.205560000000     0.496450000000     0.01396    
H1       H      0.650330000000     0.560890000000     0.960890000000     0.0439196  
H2       H      0.651960000000     0.435760000000     0.968960000000     0.0432406  
H3       H      0.746600000000     0.415780000000     0.001020000000     0.0441272  
H4       H      0.745480000000     0.587210000000     0.991800000000     0.0441109  
H5       H      0.841700000000     0.563090000000     0.963350000000     0.0432281  
H6       H      0.840840000000     0.440370000000     0.030550000000     0.0436568  
H7       H      0.649680000000     0.564940000000     0.022630000000     0.0431966  
H8       H      0.651610000000     0.439780000000     0.030730000000     0.0442426  
H9       H      0.840870000000     0.437670000000     0.968710000000     0.044      
H10      H      0.841350000000     0.565560000000     0.025200000000     0.0435857  
H11      H      0.151270000000     0.554850000000     0.968690000000     0.0439925  
H12      H      0.150430000000     0.429430000000     0.963350000000     0.0432776  
H13      H      0.246640000000     0.405300000000     0.991770000000     0.0441326  
H14      H      0.245550000000     0.576730000000     0.000960000000     0.0441267  
H15      H      0.340180000000     0.556730000000     0.968880000000     0.0432389  
H16      H      0.342450000000     0.427560000000     0.022560000000     0.0432193  
H17      H      0.151320000000     0.552170000000     0.030520000000     0.0436436  
H18      H      0.150790000000     0.426980000000     0.025190000000     0.0436418  
H19      H      0.341800000000     0.431610000000     0.960820000000     0.0439357  
H20      H      0.340540000000     0.552730000000     0.030650000000     0.0442522  
H21      H      0.650190000000     0.934690000000     0.027860000000     0.043785   
H22      H      0.651330000000     0.060090000000     0.027790000000     0.0435285  
H23      H      0.746950000000     0.081910000000     0.996570000000     0.044058   
H24      H      0.744640000000     0.910240000000     0.996660000000     0.044033   
H25      H      0.840380000000     0.932050000000     0.027350000000     0.0435302  
H26      H      0.841430000000     0.057450000000     0.965410000000     0.0436904  
H27      H      0.650020000000     0.934640000000     0.965970000000     0.043714   
H28      H      0.651170000000     0.060070000000     0.965880000000     0.0434152  
H29      H      0.841550000000     0.057500000000     0.027300000000     0.0438325  
H30      H      0.840260000000     0.932070000000     0.965440000000     0.0434296  
H31      H      0.151350000000     0.060010000000     0.965750000000     0.0435206  
H32      H      0.150170000000     0.934600000000     0.965640000000     0.0436222  
H33      H      0.244620000000     0.910120000000     0.996810000000     0.043907   
H34      H      0.246960000000     0.081790000000     0.996960000000     0.0441945  
H35      H      0.341540000000     0.057400000000     0.966220000000     0.0438208  
H36      H      0.340270000000     0.931940000000     0.028020000000     0.0434241  
H37      H      0.151190000000     0.059970000000     0.027650000000     0.043617   
H38      H      0.150010000000     0.934540000000     0.027530000000     0.0437523  
H39      H      0.340390000000     0.931950000000     0.966110000000     0.0433134  
H40      H      0.341420000000     0.057320000000     0.028110000000     0.0438731  
H41      H      0.434650000000     0.461990000000     0.149180000000     0.0408537  
H42      H      0.506070000000     0.565040000000     0.151270000000     0.0457887  
H43      H      0.554890000000     0.558530000000     0.245490000000     0.0445046  
H44      H      0.436940000000     0.433850000000     0.245380000000     0.0445036  
H45      H      0.427750000000     0.482280000000     0.339580000000     0.0457785  
H46      H      0.563980000000     0.510020000000     0.339640000000     0.0458066  
H47      H      0.485880000000     0.427420000000     0.151230000000     0.0458014  
H48      H      0.557310000000     0.530460000000     0.149290000000     0.0408388  
H49      H      0.526660000000     0.559290000000     0.341680000000     0.0408336  
H50      H      0.465060000000     0.432990000000     0.341580000000     0.0407982  
H51      H      0.559190000000     0.465400000000     0.841590000000     0.0407812  
H52      H      0.482250000000     0.564380000000     0.839560000000     0.0457866  
H53      H      0.433680000000     0.555140000000     0.745440000000     0.0444683  
H54      H      0.558260000000     0.437100000000     0.745420000000     0.0444592  
H55      H      0.564640000000     0.485890000000     0.651190000000     0.0457758  
H56      H      0.427090000000     0.506110000000     0.651320000000     0.0457711  
H57      H      0.509920000000     0.428070000000     0.839660000000     0.0457844  
H58      H      0.432980000000     0.527070000000     0.841670000000     0.0408159  
H59      H      0.461640000000     0.557370000000     0.649200000000     0.0408042  
H60      H      0.530070000000     0.434640000000     0.649260000000     0.0407991  
H61      H      0.485600000000     0.064810000000     0.152960000000     0.0458565  
H62      H      0.557300000000     0.961960000000     0.150850000000     0.0404971  
H63      H      0.555410000000     0.934250000000     0.247070000000     0.0444205  
H64      H      0.436310000000     0.057830000000     0.247070000000     0.0445773  
H65      H      0.464040000000     0.058700000000     0.343280000000     0.0405671  
H66      H      0.527660000000     0.933370000000     0.343290000000     0.0405047  
H67      H      0.434440000000     0.030130000000     0.150850000000     0.0406022  
H68      H      0.506150000000     0.927280000000     0.152950000000     0.0458231  
H69      H      0.564160000000     0.983270000000     0.341190000000     0.0457718  
H70      H      0.427540000000     0.008800000000     0.341180000000     0.0459166  
H71      H      0.463390000000     0.058400000000     0.650860000000     0.0405103  
H72      H      0.564210000000     0.983900000000     0.652980000000     0.0457681  
H73      H      0.555820000000     0.934710000000     0.747070000000     0.0444397  
H74      H      0.435680000000     0.057300000000     0.747070000000     0.0446038  
H75      H      0.484930000000     0.064670000000     0.841190000000     0.0458636  
H76      H      0.506480000000     0.927290000000     0.841160000000     0.045779   
H77      H      0.427360000000     0.008170000000     0.652940000000     0.0459154  
H78      H      0.528180000000     0.933670000000     0.650830000000     0.0404242  
H79      H      0.557390000000     0.962340000000     0.843300000000     0.040452   
H80      H      0.434030000000     0.029600000000     0.843280000000     0.0405598  
H81      H      0.431110000000     0.650300000000     0.460930000000     0.0438183  
H82      H      0.556170000000     0.651990000000     0.469050000000     0.0432635  
H83      H      0.576090000000     0.746590000000     0.501240000000     0.044094   
H84      H      0.404750000000     0.745440000000     0.491940000000     0.0440294  
H85      H      0.428870000000     0.841720000000     0.463610000000     0.0431364  
H86      H      0.551490000000     0.840780000000     0.530860000000     0.0436053  
H87      H      0.427030000000     0.649580000000     0.522680000000     0.0429827  
H88      H      0.552130000000     0.651560000000     0.530830000000     0.0441609  
H89      H      0.554230000000     0.840860000000     0.469030000000     0.0440851  
H90      H      0.426380000000     0.841330000000     0.525460000000     0.043378   
H91      H      0.560570000000     0.341770000000     0.460820000000     0.0438506  
H92      H      0.435530000000     0.340100000000     0.468910000000     0.0432577  
H93      H      0.415580000000     0.245510000000     0.501130000000     0.0441384  
H94      H      0.586920000000     0.246630000000     0.491870000000     0.0440236  
H95      H      0.562800000000     0.150340000000     0.463580000000     0.0431478  
H96      H      0.440150000000     0.151330000000     0.530810000000     0.0436357  
H97      H      0.564640000000     0.342500000000     0.522560000000     0.0430462  
H98      H      0.439530000000     0.340530000000     0.530690000000     0.0441818  
H99      H      0.437430000000     0.151220000000     0.468970000000     0.0441185  
H100     H      0.565260000000     0.150760000000     0.525430000000     0.0433962  
H101     H      0.057600000000     0.530180000000     0.150590000000     0.0405909  
H102     H      0.985580000000     0.427560000000     0.152680000000     0.0457989  
H103     H      0.936460000000     0.434560000000     0.246800000000     0.0443857  
H104     H      0.055640000000     0.558080000000     0.246780000000     0.0444785  
H105     H      0.064340000000     0.509260000000     0.340910000000     0.0458157  
H106     H      0.927750000000     0.483450000000     0.340910000000     0.0457708  
H107     H      0.006550000000     0.565040000000     0.152650000000     0.0458617  
H108     H      0.934530000000     0.462410000000     0.150600000000     0.0405578  
H109     H      0.964360000000     0.433630000000     0.343000000000     0.0405282  
H110     H      0.027730000000     0.559070000000     0.342970000000     0.0405707  
H111     H      0.064510000000     0.508640000000     0.652660000000     0.0458034  
H112     H      0.964000000000     0.433730000000     0.650600000000     0.0405391  
H113     H      0.936020000000     0.434960000000     0.746790000000     0.0443545  
H114     H      0.056200000000     0.557500000000     0.746790000000     0.0444115  
H115     H      0.057930000000     0.529560000000     0.842990000000     0.0406307  
H116     H      0.934250000000     0.462920000000     0.842980000000     0.0406007  
H117     H      0.028250000000     0.558710000000     0.650600000000     0.0406127  
H118     H      0.927730000000     0.483800000000     0.652660000000     0.0457643  
H119     H      0.984980000000     0.427600000000     0.840930000000     0.0457745  
H120     H      0.007210000000     0.564880000000     0.840910000000     0.0458365  
H121     H      0.064120000000     0.982700000000     0.340480000000     0.0457716  
H122     H      0.964780000000     0.059160000000     0.342610000000     0.0405327  
H123     H      0.936820000000     0.058390000000     0.246460000000     0.0444846  
H124     H      0.054810000000     0.933730000000     0.246430000000     0.044402   
H125     H      0.056850000000     0.961380000000     0.150200000000     0.0405263  
H126     H      0.934530000000     0.030510000000     0.150280000000     0.0406002  
H127     H      0.027110000000     0.933190000000     0.342690000000     0.0405253  
H128     H      0.927760000000     0.009640000000     0.340650000000     0.0458807  
H129     H      0.985950000000     0.064820000000     0.152290000000     0.0458303  
H130     H      0.005410000000     0.927120000000     0.152360000000     0.0458109  
H131     H      0.964990000000     0.059360000000     0.650270000000     0.0405119  
H132     H      0.064310000000     0.982890000000     0.652350000000     0.0457368  
H133     H      0.055030000000     0.933920000000     0.746430000000     0.0443768  
H134     H      0.937070000000     0.058600000000     0.746460000000     0.044486   
H135     H      0.986230000000     0.065000000000     0.840630000000     0.0458287  
H136     H      0.005650000000     0.927300000000     0.840480000000     0.0458131  
H137     H      0.927950000000     0.009860000000     0.652290000000     0.045873   
H138     H      0.027290000000     0.933370000000     0.650200000000     0.0405029  
H139     H      0.057090000000     0.961570000000     0.842680000000     0.0405082  
H140     H      0.934790000000     0.030730000000     0.842620000000     0.0406029  
H141     H      0.049250000000     0.652370000000     0.527790000000     0.0438386  
H142     H      0.923940000000     0.649880000000     0.527770000000     0.043248   
H143     H      0.899820000000     0.746280000000     0.496720000000     0.044109   
H144     H      0.071400000000     0.746300000000     0.496710000000     0.0439434  
H145     H      0.049240000000     0.840300000000     0.527520000000     0.0438923  
H146     H      0.923900000000     0.842680000000     0.465660000000     0.0431811  
H147     H      0.049280000000     0.652310000000     0.465890000000     0.0438587  
H148     H      0.923930000000     0.649820000000     0.465890000000     0.0432357  
H149     H      0.923910000000     0.842760000000     0.527540000000     0.0432045  
H150     H      0.049230000000     0.840210000000     0.465630000000     0.0438983  
H151     H      0.942920000000     0.340200000000     0.527640000000     0.0438324  
H152     H      0.068240000000     0.342680000000     0.527570000000     0.0432953  
H153     H      0.092330000000     0.246290000000     0.496470000000     0.0441971  
H154     H      0.920750000000     0.246290000000     0.496540000000     0.043893   
H155     H      0.942900000000     0.152300000000     0.527340000000     0.0438994  
H156     H      0.068210000000     0.149890000000     0.465410000000     0.0432765  
H157     H      0.942880000000     0.340300000000     0.465740000000     0.0438383  
H158     H      0.068210000000     0.342770000000     0.465680000000     0.0432839  
H159     H      0.068250000000     0.149820000000     0.527290000000     0.0432977  
H160     H      0.942910000000     0.152370000000     0.465440000000     0.0438803  
N1       N      0.862490000000     0.501550000000     0.996930000000    -0.171457   
N2       N      0.629610000000     0.499980000000     0.995660000000    -0.171341   
N3       N      0.362520000000     0.492510000000     0.995590000000    -0.171325   
N4       N      0.129650000000     0.490980000000     0.996920000000    -0.171427   
N5       N      0.862180000000     0.994530000000     0.996360000000    -0.171735   
N6       N      0.629410000000     0.997610000000     0.996920000000    -0.171695   
N7       N      0.362180000000     0.994410000000     0.997130000000    -0.171746   
N8       N      0.129410000000     0.997520000000     0.996600000000    -0.171682   
N9       N      0.495860000000     0.496130000000     0.361840000000    -0.171161   
N10      N      0.495990000000     0.496230000000     0.129020000000    -0.17119    
N11      N      0.495840000000     0.495990000000     0.629020000000    -0.1712     
N12      N      0.496100000000     0.496240000000     0.861840000000    -0.171151   
N13      N      0.495840000000     0.996040000000     0.363430000000    -0.171544   
N14      N      0.495870000000     0.996040000000     0.130700000000    -0.171541   
N15      N      0.495710000000     0.995970000000     0.863430000000    -0.171572   
N16      N      0.495800000000     0.996050000000     0.630710000000    -0.171584   
N17      N      0.490370000000     0.862470000000     0.497220000000    -0.171669   
N18      N      0.491980000000     0.629590000000     0.495710000000    -0.17153    
N19      N      0.501290000000     0.129620000000     0.497180000000    -0.171647   
N20      N      0.499700000000     0.362500000000     0.495600000000    -0.171565   
N21      N      0.996050000000     0.496350000000     0.363150000000    -0.171518   
N22      N      0.996060000000     0.496290000000     0.130430000000    -0.171452   
N23      N      0.996090000000     0.496240000000     0.863160000000    -0.171557   
N24      N      0.996120000000     0.496220000000     0.630420000000    -0.171553   
N25      N      0.995670000000     0.995950000000     0.130080000000    -0.171586   
N26      N      0.995970000000     0.996200000000     0.362810000000    -0.171586   
N27      N      0.995910000000     0.996120000000     0.862810000000    -0.17159    
N28      N      0.996140000000     0.996380000000     0.630080000000    -0.171595   
N29      N      0.987040000000     0.862820000000     0.496560000000    -0.17144    
N30      N      0.987070000000     0.629770000000     0.496840000000    -0.171442   
N31      N      0.005100000000     0.129760000000     0.496370000000    -0.171386   
N32      N      0.005090000000     0.362820000000     0.496690000000    -0.171422   
Ni1      Ni     0.036760000000     0.992770000000     0.496420000000     1.0013     
Ni2      Ni     0.955380000000     0.999810000000     0.496470000000     1.0007     
Ni3      Ni     0.036770000000     0.499790000000     0.496780000000     1.0015     
Ni4      Ni     0.955390000000     0.492790000000     0.496800000000     1.00139    
Ni5      Ni     0.455050000000     0.998510000000     0.497070000000     1.00208    
Ni6      Ni     0.536590000000     0.993580000000     0.497080000000     1.00193    
Ni7      Ni     0.455150000000     0.494900000000     0.495430000000     0.998686   
Ni8      Ni     0.536550000000     0.497180000000     0.495440000000     0.998552   
Ni9      Ni     0.997070000000     0.955180000000     0.996420000000     1.00162    
Ni10     Ni     0.994510000000     0.036880000000     0.996470000000     1.00226    
Ni11     Ni     0.993670000000     0.455480000000     0.996800000000     1.00127    
Ni12     Ni     0.998460000000     0.537060000000     0.996780000000     1.00123    
Ni13     Ni     0.497110000000     0.955160000000     0.997080000000     1.00172    
Ni14     Ni     0.494470000000     0.036860000000     0.997050000000     1.00213    
Ni15     Ni     0.497170000000     0.455520000000     0.995430000000     0.997904   
Ni16     Ni     0.494960000000     0.536960000000     0.995430000000     0.997555   
O1       O      0.034000000000     0.992010000000     0.562020000000    -0.449556   
O2       O      0.033920000000     0.991920000000     0.430820000000    -0.44953    
O3       O      0.039180000000     0.058900000000     0.496370000000    -0.445717   
O4       O      0.029000000000     0.928160000000     0.496470000000    -0.45315    
O5       O      0.952950000000     0.933680000000     0.496520000000    -0.445801   
O6       O      0.963130000000     0.064420000000     0.496420000000    -0.453026   
O7       O      0.958130000000     0.000570000000     0.430870000000    -0.449256   
O8       O      0.958210000000     0.000660000000     0.562060000000    -0.449235   
O9       O      0.034000000000     0.500530000000     0.562370000000    -0.449737   
O10      O      0.033960000000     0.500640000000     0.431180000000    -0.449567   
O11      O      0.029030000000     0.564420000000     0.496830000000    -0.453022   
O12      O      0.039190000000     0.433670000000     0.496720000000    -0.445915   
O13      O      0.963140000000     0.428170000000     0.496780000000    -0.453274   
O14      O      0.952980000000     0.558910000000     0.496820000000    -0.445894   
O15      O      0.958160000000     0.492010000000     0.431200000000    -0.449584   
O16      O      0.958200000000     0.491980000000     0.562390000000    -0.44975    
O17      O      0.457870000000     0.999690000000     0.431470000000    -0.449805   
O18      O      0.457790000000     0.999110000000     0.562670000000    -0.449864   
O19      O      0.460880000000     0.063300000000     0.497450000000    -0.453259   
O20      O      0.454600000000     0.932390000000     0.496700000000    -0.446959   
O21      O      0.530770000000     0.928780000000     0.497470000000    -0.453372   
O22      O      0.537050000000     0.059690000000     0.496700000000    -0.446766   
O23      O      0.533830000000     0.992990000000     0.562680000000    -0.44971    
O24      O      0.533800000000     0.992380000000     0.431470000000    -0.449707   
O25      O      0.457890000000     0.499630000000     0.560920000000    -0.448347   
O26      O      0.458160000000     0.490350000000     0.429940000000    -0.448378   
O27      O      0.460010000000     0.429620000000     0.499040000000    -0.449596   
O28      O      0.455790000000     0.560420000000     0.491850000000    -0.448542   
O29      O      0.531680000000     0.562470000000     0.499100000000    -0.44955    
O30      O      0.535900000000     0.431670000000     0.491790000000    -0.448564   
O31      O      0.533540000000     0.501810000000     0.429950000000    -0.448436   
O32      O      0.533800000000     0.492390000000     0.560920000000    -0.448336   
O33      O      0.998090000000     0.957970000000     0.930820000000    -0.449595   
O34      O      0.997980000000     0.957890000000     0.062020000000    -0.449592   
O35      O      0.931040000000     0.956910000000     0.996370000000    -0.447319   
O36      O      0.062030000000     0.958850000000     0.996480000000    -0.452581   
O37      O      0.060550000000     0.035140000000     0.996530000000    -0.447172   
O38      O      0.929560000000     0.033200000000     0.996400000000    -0.45265    
O39      O      0.993480000000     0.034090000000     0.062060000000    -0.449415   
O40      O      0.993620000000     0.034170000000     0.930870000000    -0.44957    
O41      O      0.992510000000     0.458260000000     0.931200000000    -0.449698   
O42      O      0.993090000000     0.458230000000     0.062400000000    -0.449623   
O43      O      0.928860000000     0.461200000000     0.997180000000    -0.452839   
O44      O      0.059770000000     0.455120000000     0.996430000000    -0.446346   
O45      O      0.063280000000     0.531330000000     0.997170000000    -0.45273    
O46      O      0.932360000000     0.537410000000     0.996420000000    -0.446566   
O47      O      0.999040000000     0.534330000000     0.062380000000    -0.449576   
O48      O      0.999630000000     0.534250000000     0.931190000000    -0.449781   
O49      O      0.498100000000     0.957930000000     0.062680000000    -0.449617   
O50      O      0.498060000000     0.957900000000     0.931470000000    -0.449664   
O51      O      0.562060000000     0.958890000000     0.997040000000    -0.452717   
O52      O      0.431070000000     0.956840000000     0.997100000000    -0.447328   
O53      O      0.429530000000     0.033130000000     0.997120000000    -0.452618   
O54      O      0.560520000000     0.035180000000     0.996990000000    -0.447149   
O55      O      0.493440000000     0.034080000000     0.931450000000    -0.449536   
O56      O      0.493570000000     0.034120000000     0.062660000000    -0.4494     
O57      O      0.501780000000     0.458530000000     0.929950000000    -0.448433   
O58      O      0.492400000000     0.458270000000     0.060910000000    -0.44828    
O59      O      0.431660000000     0.456240000000     0.991810000000    -0.448004   
O60      O      0.562460000000     0.460320000000     0.999080000000    -0.449052   
O61      O      0.560480000000     0.536250000000     0.991850000000    -0.44796    
O62      O      0.429680000000     0.532170000000     0.999040000000    -0.449043   
O63      O      0.499690000000     0.534210000000     0.060930000000    -0.448006   
O64      O      0.490400000000     0.533960000000     0.929940000000    -0.448279   


