data_structure

_audit_creation_method RASPA-1.0
_audit_creation_date 2023-6-5
_audit_author_name 'Poobodin Mano'

_cell_length_a    47.7742
_cell_length_b    47.7669
_cell_length_c    28.607
_cell_angle_alpha 89.9825
_cell_angle_beta  90.0175
_cell_angle_gamma 119.972
_cell_volume      56551.7

_symmetry_cell_setting          triclinic
_symmetry_space_group_name_Hall 'P 1'
_symmetry_space_group_name_H-M  'P 1'
_symmetry_Int_Tables_number     1

_symmetry_equiv_pos_as_xyz 'x,y,z'

loop_
_atom_site_label
_atom_site_type_symbol
_atom_site_fract_x
_atom_site_fract_y
_atom_site_fract_z
_atom_site_charge
C1       C      0.848720000000     0.669160000000     0.554300000000     0.432338   
C2       C      0.817210000000     0.665900000000     0.725180000000     0.43225    
C3       C      0.773870000000     0.640930000000     0.615120000000     0.431871   
C4       C      0.892050000000     0.694130000000     0.664360000000     0.431791   
C5       C      0.150590000000     0.820310000000     0.891860000000     0.432107   
C6       C      0.182000000000     0.848520000000     0.720930000000     0.432703   
C7       C      0.225390000000     0.866970000000     0.830950000000     0.431982   
C8       C      0.107200000000     0.801860000000     0.781840000000     0.432063   
C9       C      0.484040000000     0.999540000000     0.057980000000     0.432261   
C10      C      0.515500000000     0.002770000000     0.887080000000     0.432172   
C11      C      0.558860000000     0.027700000000     0.997120000000     0.431576   
C12      C      0.440670000000     0.974620000000     0.947960000000     0.431876   
C13      C      0.150530000000     0.332380000000     0.391960000000     0.432327   
C14      C      0.182000000000     0.335620000000     0.221060000000     0.432024   
C15      C      0.225360000000     0.360540000000     0.331110000000     0.431991   
C16      C      0.107180000000     0.307470000000     0.281910000000     0.431701   
C17      C      0.817280000000     0.153470000000     0.224860000000     0.432308   
C18      C      0.848810000000     0.181730000000     0.053970000000     0.432333   
C19      C      0.892130000000     0.200090000000     0.164060000000     0.431804   
C20      C      0.773960000000     0.135120000000     0.114770000000     0.431808   
C21      C      0.515390000000     0.514810000000     0.387450000000     0.432313   
C22      C      0.483950000000     0.486600000000     0.558370000000     0.432388   
C23      C      0.440580000000     0.468150000000     0.448330000000     0.431378   
C24      C      0.558760000000     0.533260000000     0.497480000000     0.431757   
C25      C      0.152110000000     0.335610000000     0.721040000000     0.432362   
C26      C      0.180330000000     0.332400000000     0.891990000000     0.432413   
C27      C      0.198800000000     0.307480000000     0.782010000000     0.431985   
C28      C      0.133630000000     0.360540000000     0.831010000000     0.431842   
C29      C      0.334660000000     0.153460000000     0.725020000000     0.432372   
C30      C      0.331430000000     0.181690000000     0.554080000000     0.432258   
C31      C      0.306460000000     0.200100000000     0.664080000000     0.431971   
C32      C      0.359630000000     0.135060000000     0.615030000000     0.432231   
C33      C      0.001140000000     0.486570000000     0.058550000000     0.432136   
C34      C      0.997920000000     0.514800000000     0.887610000000     0.432333   
C35      C      0.973000000000     0.533260000000     0.997590000000     0.431982   
C36      C      0.026060000000     0.468100000000     0.948570000000     0.432001   
C37      C      0.664900000000     0.848550000000     0.220380000000     0.432411   
C38      C      0.668090000000     0.820350000000     0.391340000000     0.432237   
C39      C      0.693020000000     0.801860000000     0.281390000000     0.431988   
C40      C      0.639970000000     0.867040000000     0.330340000000     0.431981   
C41      C      0.818940000000     0.669120000000     0.054250000000     0.432289   
C42      C      0.847120000000     0.665920000000     0.225220000000     0.432526   
C43      C      0.865560000000     0.640930000000     0.115280000000     0.432089   
C44      C      0.800500000000     0.694110000000     0.164180000000     0.432212   
C45      C      0.513960000000     0.999540000000     0.558000000000     0.432217   
C46      C      0.485750000000     0.002760000000     0.387060000000     0.432458   
C47      C      0.467280000000     0.027680000000     0.497040000000     0.431965   
C48      C      0.532430000000     0.974620000000     0.448020000000     0.432064   
C49      C      0.331420000000     0.151870000000     0.054100000000     0.432305   
C50      C      0.334650000000     0.183330000000     0.225010000000     0.432283   
C51      C      0.359630000000     0.226700000000     0.114990000000     0.432044   
C52      C      0.306440000000     0.108500000000     0.164120000000     0.432147   
C53      C      0.485790000000     0.485220000000     0.887440000000     0.432366   
C54      C      0.514000000000     0.516660000000     0.058370000000     0.432147   
C55      C      0.532460000000     0.560040000000     0.948330000000     0.43179    
C56      C      0.467340000000     0.441850000000     0.997470000000     0.431875   
C57      C      0.180310000000     0.850030000000     0.391860000000     0.432443   
C58      C      0.152090000000     0.818590000000     0.220940000000     0.432421   
C59      C      0.133630000000     0.775220000000     0.330970000000     0.431972   
C60      C      0.198760000000     0.893400000000     0.281830000000     0.43202    
C61      C      0.997930000000     0.485270000000     0.387620000000     0.432492   
C62      C      0.001150000000     0.516690000000     0.558540000000     0.432037   
C63      C      0.026070000000     0.560080000000     0.448530000000     0.432117   
C64      C      0.973000000000     0.441880000000     0.497620000000     0.431872   
C65      C      0.818920000000     0.151880000000     0.553940000000     0.432078   
C66      C      0.847090000000     0.183250000000     0.724890000000     0.432564   
C67      C      0.865520000000     0.226680000000     0.614920000000     0.431929   
C68      C      0.800500000000     0.108460000000     0.663910000000     0.431768   
C69      C      0.668120000000     0.849910000000     0.891310000000     0.432416   
C70      C      0.664880000000     0.818450000000     0.720410000000     0.432245   
C71      C      0.639970000000     0.775080000000     0.830440000000     0.431951   
C72      C      0.693030000000     0.893270000000     0.781280000000     0.431992   
C73      C      0.742320000000     0.943740000000     0.757720000000    -0.0202324  
C74      C      0.749210000000     0.059360000000     0.689540000000    -0.0205754  
C75      C      0.799370000000     0.057980000000     0.687420000000    -0.0201665  
C76      C      0.772870000000     0.027360000000     0.706280000000     0.0136242  
C77      C      0.744040000000     0.027720000000     0.706890000000     0.0128524  
C78      C      0.715260000000     0.000850000000     0.722550000000    -0.0648868  
C79      C      0.690780000000     0.942360000000     0.755580000000    -0.0205414  
C80      C      0.774920000000     0.000850000000     0.722550000000    -0.0662936  
C81      C      0.717210000000     0.973980000000     0.738210000000     0.0128474  
C82      C      0.746390000000     0.974340000000     0.738830000000     0.0136456  
C83      C      0.975240000000     0.392790000000     0.523290000000    -0.0204031  
C84      C      0.866650000000     0.277160000000     0.591410000000    -0.0202246  
C85      C      0.916810000000     0.275780000000     0.589290000000    -0.02053    
C86      C      0.921980000000     0.307410000000     0.571940000000     0.0128207  
C87      C      0.893150000000     0.307770000000     0.572560000000     0.0136741  
C88      C      0.891100000000     0.334290000000     0.556290000000    -0.0663625  
C89      C      0.923710000000     0.391410000000     0.521160000000    -0.020302   
C90      C      0.950760000000     0.334290000000     0.556290000000    -0.0648469  
C91      C      0.919630000000     0.360800000000     0.540030000000     0.0137165  
C92      C      0.948820000000     0.361160000000     0.540650000000     0.0127885  
C93      C      0.132470000000     0.724740000000     0.354570000000    -0.0202625  
C94      C      0.023850000000     0.609190000000     0.422840000000    -0.0206079  
C95      C      0.075370000000     0.610540000000     0.424990000000    -0.0201288  
C96      C      0.079470000000     0.641150000000     0.406090000000     0.0136186  
C97      C      0.050290000000     0.640810000000     0.405460000000     0.0128779  
C98      C      0.048350000000     0.667680000000     0.389760000000    -0.0649498  
C99      C      0.082330000000     0.726160000000     0.356670000000    -0.0205334  
C100     C      0.108000000000     0.667640000000     0.389790000000    -0.0663317  
C101     C      0.077150000000     0.694530000000     0.374080000000     0.0128492  
C102     C      0.105970000000     0.694150000000     0.373480000000     0.0136665  
C103     C      0.642200000000     0.726000000000     0.856210000000    -0.0205029  
C104     C      0.533620000000     0.610510000000     0.924710000000    -0.020257   
C105     C      0.583760000000     0.609090000000     0.922600000000    -0.0205442  
C106     C      0.588930000000     0.640700000000     0.905140000000     0.0128663  
C107     C      0.560110000000     0.641080000000     0.905750000000     0.0136569  
C108     C      0.558070000000     0.667580000000     0.889380000000    -0.0663638  
C109     C      0.590670000000     0.724640000000     0.854060000000    -0.0203244  
C110     C      0.617720000000     0.667540000000     0.889410000000    -0.064989   
C111     C      0.586590000000     0.694050000000     0.873030000000     0.0137062  
C112     C      0.615770000000     0.694400000000     0.873660000000     0.0128291  
C113     C      0.199950000000     0.943900000000     0.258210000000    -0.0202089  
C114     C      0.308610000000     0.059380000000     0.189860000000    -0.0205442  
C115     C      0.257110000000     0.058070000000     0.187690000000    -0.0201862  
C116     C      0.253000000000     0.027460000000     0.206620000000     0.0136412  
C117     C      0.282160000000     0.027780000000     0.207270000000     0.0128704  
C118     C      0.284070000000     0.000910000000     0.222990000000    -0.0649121  
C119     C      0.250070000000     0.942450000000     0.256120000000    -0.0205058  
C120     C      0.224450000000     0.000990000000     0.222940000000    -0.0663219  
C121     C      0.255270000000     0.974070000000     0.238690000000     0.0128398  
C122     C      0.226460000000     0.974470000000     0.239280000000     0.0136531  
C123     C      0.357460000000     0.275830000000     0.089270000000    -0.0206445  
C124     C      0.466140000000     0.391350000000     0.021050000000    -0.0199857  
C125     C      0.416020000000     0.392800000000     0.023140000000    -0.0204255  
C126     C      0.410820000000     0.361160000000     0.040530000000     0.0128813  
C127     C      0.439620000000     0.360760000000     0.039930000000     0.0135808  
C128     C      0.441630000000     0.334230000000     0.056240000000    -0.0662792  
C129     C      0.408970000000     0.277130000000     0.091440000000    -0.0202287  
C130     C      0.382010000000     0.334320000000     0.056200000000    -0.06495    
C131     C      0.413090000000     0.307750000000     0.072530000000     0.0136416  
C132     C      0.383920000000     0.307430000000     0.071890000000     0.0129144  
C133     C      0.635800000000     0.797230000000     0.644730000000    -0.0208701  
C134     C      0.697180000000     0.828140000000     0.467010000000    -0.020883   
C135     C      0.638760000000     0.794000000000     0.464510000000    -0.0204812  
C136     C      0.650510000000     0.799370000000     0.513480000000     0.0132422  
C137     C      0.683950000000     0.817470000000     0.514740000000     0.0134869  
C138     C      0.700910000000     0.825380000000     0.557150000000    -0.0656696  
C139     C      0.694220000000     0.821520000000     0.647210000000    -0.0204241  
C140     C      0.632080000000     0.790960000000     0.554570000000    -0.0656997  
C141     C      0.682480000000     0.815280000000     0.598240000000     0.0132056  
C142     C      0.649040000000     0.799930000000     0.596980000000     0.0135048  
C143     C      0.697200000000     0.871180000000     0.966980000000    -0.020872   
C144     C      0.635820000000     0.840720000000     0.144690000000    -0.0208888  
C145     C      0.694240000000     0.874820000000     0.147180000000    -0.0204058  
C146     C      0.682500000000     0.869350000000     0.098200000000     0.0132069  
C147     C      0.649060000000     0.851280000000     0.096940000000     0.0135277  
C148     C      0.632100000000     0.843290000000     0.054530000000    -0.0657203  
C149     C      0.638790000000     0.846940000000     0.964470000000    -0.0205116  
C150     C      0.700930000000     0.877650000000     0.057120000000    -0.06567    
C151     C      0.650530000000     0.853270000000     0.013440000000     0.0133372  
C152     C      0.683970000000     0.868600000000     0.014710000000     0.0135485  
C153     C      0.742310000000     0.800660000000     0.257890000000    -0.0201745  
C154     C      0.749210000000     0.691950000000     0.189790000000    -0.0205991  
C155     C      0.799370000000     0.743460000000     0.187640000000    -0.0202092  
C156     C      0.772870000000     0.747580000000     0.206490000000     0.0136314  
C157     C      0.744040000000     0.718410000000     0.207120000000     0.0129139  
C158     C      0.715260000000     0.716500000000     0.222780000000    -0.0649437  
C159     C      0.690780000000     0.750530000000     0.255780000000    -0.0204918  
C160     C      0.774910000000     0.776130000000     0.222760000000    -0.0662808  
C161     C      0.717200000000     0.745320000000     0.238420000000     0.0128477  
C162     C      0.746390000000     0.774130000000     0.239030000000     0.0136479  
C163     C      0.533610000000     0.925310000000     0.424440000000    -0.0202378  
C164     C      0.642200000000     0.918360000000     0.356010000000    -0.0205642  
C165     C      0.590670000000     0.868230000000     0.353870000000    -0.0202109  
C166     C      0.586590000000     0.894730000000     0.372800000000     0.0136498  
C167     C      0.615760000000     0.923550000000     0.373420000000     0.0128978  
C168     C      0.617710000000     0.952340000000     0.389150000000    -0.0649795  
C169     C      0.583740000000     0.976840000000     0.422310000000    -0.0205627  
C170     C      0.558070000000     0.892700000000     0.389150000000    -0.066291   
C171     C      0.588920000000     0.950410000000     0.404870000000     0.0128744  
C172     C      0.560100000000     0.921230000000     0.405490000000     0.0136522  
C173     C      0.971800000000     0.513610000000     0.631730000000    -0.0204714  
C174     C      0.027250000000     0.541150000000     0.814440000000    -0.0204663  
C175     C      0.968840000000     0.507010000000     0.811940000000    -0.0207855  
C176     C      0.982070000000     0.517680000000     0.764200000000     0.0135635  
C177     C      0.015510000000     0.535780000000     0.765470000000     0.0131355  
C178     C      0.033940000000     0.544180000000     0.724390000000    -0.0656296  
C179     C      0.030220000000     0.537900000000     0.634230000000    -0.0208006  
C180     C      0.965110000000     0.509760000000     0.721800000000    -0.065727   
C181     C      0.016980000000     0.535200000000     0.681970000000     0.0133708  
C182     C      0.983540000000     0.519860000000     0.680710000000     0.0133249  
C183     C      0.968840000000     0.464000000000     0.311950000000    -0.020836   
C184     C      0.030220000000     0.494400000000     0.134230000000    -0.0208459  
C185     C      0.971800000000     0.460310000000     0.131750000000    -0.0203862  
C186     C      0.983540000000     0.465790000000     0.180730000000     0.0132987  
C187     C      0.016980000000     0.483860000000     0.181990000000     0.0133824  
C188     C      0.033940000000     0.491860000000     0.224400000000    -0.0655772  
C189     C      0.027260000000     0.488240000000     0.314460000000    -0.0204372  
C190     C      0.965110000000     0.457510000000     0.221820000000    -0.0657235  
C191     C      0.015510000000     0.481890000000     0.265490000000     0.0131089  
C192     C      0.982070000000     0.466570000000     0.264220000000     0.0135929  
C193     C      0.923710000000     0.534450000000     0.021180000000    -0.0200666  
C194     C      0.916850000000     0.643100000000     0.089620000000    -0.0204861  
C195     C      0.866700000000     0.591590000000     0.091770000000    -0.020249   
C196     C      0.893190000000     0.587480000000     0.072830000000     0.0136904  
C197     C      0.922010000000     0.616650000000     0.072200000000     0.0128519  
C198     C      0.950780000000     0.618570000000     0.056470000000    -0.0648788  
C199     C      0.975250000000     0.584580000000     0.023300000000    -0.0204279  
C200     C      0.891130000000     0.558950000000     0.056490000000    -0.0662875  
C201     C      0.948830000000     0.589770000000     0.040740000000     0.0128563  
C202     C      0.919640000000     0.560960000000     0.040130000000     0.0136345  
C203     C      0.305320000000     0.127170000000     0.798210000000    -0.0204916  
C204     C      0.360760000000     0.154870000000     0.980930000000    -0.0205334  
C205     C      0.302340000000     0.130630000000     0.978420000000    -0.020966   
C206     C      0.315580000000     0.133240000000     0.930680000000     0.013499   
C207     C      0.349020000000     0.148570000000     0.931960000000     0.0132031  
C208     C      0.367450000000     0.158640000000     0.890870000000    -0.0656246  
C209     C      0.363740000000     0.161290000000     0.800710000000    -0.0208007  
C210     C      0.298630000000     0.124250000000     0.888270000000    -0.0656554  
C211     C      0.350500000000     0.150700000000     0.848460000000     0.0134471  
C212     C      0.317060000000     0.132620000000     0.847180000000     0.0132324  
C213     C      0.302350000000     0.173870000000     0.478400000000    -0.020897   
C214     C      0.363740000000     0.204570000000     0.300680000000    -0.0208787  
C215     C      0.305320000000     0.180320000000     0.298180000000    -0.0204291  
C216     C      0.317060000000     0.186620000000     0.347150000000     0.0132107  
C217     C      0.350500000000     0.201950000000     0.348420000000     0.0135049  
C218     C      0.367460000000     0.210930000000     0.390830000000    -0.0656914  
C219     C      0.360770000000     0.208000000000     0.480900000000    -0.0204594  
C220     C      0.298630000000     0.176550000000     0.388240000000    -0.0656782  
C221     C      0.349030000000     0.202550000000     0.431920000000     0.0132259  
C222     C      0.315590000000     0.184470000000     0.430650000000     0.013494   
C223     C      0.408960000000     0.133940000000     0.591420000000    -0.0202611  
C224     C      0.415970000000     0.025420000000     0.522760000000    -0.0204303  
C225     C      0.466080000000     0.076960000000     0.520640000000    -0.0202013  
C226     C      0.439570000000     0.081020000000     0.539620000000     0.0136663  
C227     C      0.410770000000     0.051830000000     0.540240000000     0.0128219  
C228     C      0.381980000000     0.049860000000     0.556010000000    -0.0649088  
C229     C      0.357450000000     0.083780000000     0.589270000000    -0.0205395  
C230     C      0.441590000000     0.109530000000     0.556020000000    -0.0663404  
C231     C      0.383900000000     0.078640000000     0.571780000000     0.0128362  
C232     C      0.413060000000     0.107460000000     0.572410000000     0.0136794  
C233     C      0.132450000000     0.409840000000     0.854560000000    -0.0202346  
C234     C      0.023840000000     0.416790000000     0.922900000000    -0.0205288  
C235     C      0.075360000000     0.466930000000     0.925030000000    -0.0201306  
C236     C      0.079450000000     0.440420000000     0.906120000000     0.013596   
C237     C      0.050280000000     0.411600000000     0.905500000000     0.0128846  
C238     C      0.048340000000     0.382810000000     0.889800000000    -0.0649823  
C239     C      0.082320000000     0.358300000000     0.856700000000    -0.0205799  
C240     C      0.107980000000     0.442450000000     0.889800000000    -0.0662836  
C241     C      0.077140000000     0.384740000000     0.874100000000     0.0128632  
C242     C      0.105950000000     0.413920000000     0.873480000000     0.0136579  
C243     C      0.257140000000     0.201220000000     0.687670000000    -0.0201109  
C244     C      0.250110000000     0.309740000000     0.756300000000    -0.0204416  
C245     C      0.200000000000     0.258190000000     0.758420000000    -0.0202948  
C246     C      0.226510000000     0.254140000000     0.739450000000     0.0136795  
C247     C      0.255310000000     0.283330000000     0.738840000000     0.0128244  
C248     C      0.284110000000     0.285300000000     0.723070000000    -0.0649438  
C249     C      0.308630000000     0.251380000000     0.689820000000    -0.0205017  
C250     C      0.224500000000     0.225630000000     0.723060000000    -0.066285   
C251     C      0.282190000000     0.256520000000     0.707300000000     0.0128686  
C252     C      0.253030000000     0.227690000000     0.706680000000     0.0136006  
C253     C      0.493610000000     0.463940000000     0.811790000000    -0.0208974  
C254     C      0.462710000000     0.494450000000     0.634020000000    -0.0208257  
C255     C      0.487020000000     0.460310000000     0.631580000000    -0.02049    
C256     C      0.480740000000     0.465780000000     0.680550000000     0.0132282  
C257     C      0.465380000000     0.483880000000     0.681780000000     0.0134735  
C258     C      0.456430000000     0.491900000000     0.724180000000    -0.0656745  
C259     C      0.459450000000     0.488230000000     0.814250000000    -0.0203552  
C260     C      0.490870000000     0.457470000000     0.721660000000    -0.0657064  
C261     C      0.464860000000     0.481890000000     0.765290000000     0.0131769  
C262     C      0.482960000000     0.466540000000     0.764050000000     0.0135285  
C263     C      0.536660000000     0.506980000000     0.311790000000    -0.0209236  
C264     C      0.506160000000     0.537900000000     0.134030000000    -0.020834   
C265     C      0.540280000000     0.513570000000     0.131580000000    -0.0204475  
C266     C      0.534810000000     0.519850000000     0.180550000000     0.0132097  
C267     C      0.516730000000     0.535220000000     0.181790000000     0.0134762  
C268     C      0.508720000000     0.544180000000     0.224190000000    -0.0656431  
C269     C      0.512390000000     0.541160000000     0.314250000000    -0.0204131  
C270     C      0.543120000000     0.509720000000     0.221650000000    -0.0656398  
C271     C      0.518720000000     0.535740000000     0.265290000000     0.0132107  
C272     C      0.534060000000     0.517630000000     0.264050000000     0.0135021  
C273     C      0.873400000000     0.180200000000     0.798090000000    -0.0203764  
C274     C      0.845790000000     0.208050000000     0.980770000000    -0.0204996  
C275     C      0.870070000000     0.173880000000     0.978320000000    -0.0210117  
C276     C      0.867420000000     0.184480000000     0.930560000000     0.0135016  
C277     C      0.852070000000     0.202590000000     0.931800000000     0.0132224  
C278     C      0.841960000000     0.210920000000     0.890700000000    -0.0657333  
C279     C      0.839250000000     0.204500000000     0.800560000000    -0.0209504  
C280     C      0.876380000000     0.176480000000     0.888160000000    -0.0656387  
C281     C      0.849870000000     0.201870000000     0.848310000000     0.0135587  
C282     C      0.867980000000     0.186520000000     0.847050000000     0.0131633  
C283     C      0.820300000000     0.127150000000     0.298060000000    -0.0204489  
C284     C      0.792610000000     0.154930000000     0.480740000000    -0.0204923  
C285     C      0.826760000000     0.130630000000     0.478270000000    -0.020866   
C286     C      0.816140000000     0.133250000000     0.430520000000     0.0134988  
C287     C      0.798040000000     0.148610000000     0.431770000000     0.0132174  
C288     C      0.789670000000     0.158680000000     0.390670000000    -0.0656271  
C289     C      0.796030000000     0.161320000000     0.300510000000    -0.0207449  
C290     C      0.824090000000     0.124240000000     0.388130000000    -0.0656618  
C291     C      0.798680000000     0.150730000000     0.348270000000     0.0134332  
C292     C      0.814030000000     0.132620000000     0.347030000000     0.0132338  
C293     C      0.153540000000     0.361720000000     0.465130000000    -0.0204665  
C294     C      0.125810000000     0.306260000000     0.647850000000    -0.0204546  
C295     C      0.159920000000     0.364690000000     0.645350000000    -0.0208285  
C296     C      0.149320000000     0.351450000000     0.597610000000     0.01348    
C297     C      0.131240000000     0.318000000000     0.598880000000     0.0132089  
C298     C      0.122910000000     0.299570000000     0.557790000000    -0.0656474  
C299     C      0.129290000000     0.303290000000     0.467640000000    -0.0208476  
C300     C      0.157280000000     0.368410000000     0.555200000000    -0.0656565  
C301     C      0.131920000000     0.316530000000     0.515380000000     0.0134735  
C302     C      0.147250000000     0.349980000000     0.514110000000     0.0132177  
C303     C      0.203230000000     0.364710000000     0.145390000000    -0.0208061  
C304     C      0.172520000000     0.303320000000     0.967670000000    -0.0208957  
C305     C      0.206640000000     0.361740000000     0.965170000000    -0.0204866  
C306     C      0.201230000000     0.350000000000     0.014140000000     0.013292   
C307     C      0.183140000000     0.316550000000     0.015410000000     0.0135694  
C308     C      0.175200000000     0.299590000000     0.057820000000    -0.0656744  
C309     C      0.178970000000     0.306280000000     0.147880000000    -0.0205007  
C310     C      0.209580000000     0.368430000000     0.055230000000    -0.0656468  
C311     C      0.185250000000     0.318020000000     0.098910000000     0.0132507  
C312     C      0.200580000000     0.351470000000     0.097640000000     0.0134663  
C313     C      0.058120000000     0.309730000000     0.256150000000    -0.0205412  
C314     C      0.942560000000     0.201180000000     0.187720000000    -0.0201739  
C315     C      0.941200000000     0.251350000000     0.189830000000    -0.0204712  
C316     C      0.972800000000     0.256500000000     0.207280000000     0.0128409  
C317     C      0.973150000000     0.227660000000     0.206660000000     0.0136108  
C318     C      0.999640000000     0.225600000000     0.223010000000    -0.0661737  
C319     C      0.056720000000     0.258180000000     0.258290000000    -0.0201205  
C320     C      0.999660000000     0.285270000000     0.222990000000    -0.064816   
C321     C      0.026140000000     0.254110000000     0.239340000000     0.0135411  
C322     C      0.026510000000     0.283310000000     0.238720000000     0.0127995  
C323     C      0.274460000000     0.358320000000     0.356800000000    -0.0204707  
C324     C      0.390090000000     0.466990000000     0.424790000000    -0.0203154  
C325     C      0.391500000000     0.416840000000     0.422690000000    -0.020532   
C326     C      0.359850000000     0.411640000000     0.405370000000     0.0128384  
C327     C      0.359480000000     0.440470000000     0.405970000000     0.0136858  
C328     C      0.332950000000     0.442490000000     0.389730000000    -0.0663161  
C329     C      0.275820000000     0.409850000000     0.354650000000    -0.0202654  
C330     C      0.332980000000     0.382840000000     0.389750000000    -0.0649366  
C331     C      0.306440000000     0.413950000000     0.373500000000     0.0136718  
C332     C      0.306090000000     0.384760000000     0.374130000000     0.0128259  
C333     C      0.540240000000     0.028890000000     0.631200000000    -0.020457   
C334     C      0.512510000000     0.973440000000     0.813910000000    -0.020413   
C335     C      0.536750000000     0.031860000000     0.811410000000    -0.0207916  
C336     C      0.534150000000     0.018620000000     0.763670000000     0.0134633  
C337     C      0.518830000000     0.985180000000     0.764940000000     0.0132076  
C338     C      0.508770000000     0.966750000000     0.723850000000    -0.0656524  
C339     C      0.506140000000     0.970460000000     0.633690000000    -0.020852   
C340     C      0.543140000000     0.035580000000     0.721260000000    -0.0656377  
C341     C      0.516710000000     0.983700000000     0.681440000000     0.013486   
C342     C      0.534790000000     0.017150000000     0.680170000000     0.0132147  
C343     C      0.493560000000     0.031840000000     0.311380000000    -0.0207654  
C344     C      0.462800000000     0.970460000000     0.133660000000    -0.0208226  
C345     C      0.487060000000     0.028880000000     0.131160000000    -0.0203809  
C346     C      0.480770000000     0.017140000000     0.180140000000     0.0131802  
C347     C      0.465430000000     0.983690000000     0.181400000000     0.0134875  
C348     C      0.456470000000     0.966730000000     0.223810000000    -0.065651   
C349     C      0.459440000000     0.973420000000     0.313870000000    -0.0203977  
C350     C      0.490860000000     0.035570000000     0.221230000000    -0.0656128  
C351     C      0.464870000000     0.985160000000     0.264900000000     0.0132131  
C352     C      0.482950000000     0.018600000000     0.263640000000     0.013446   
C353     C      0.724880000000     0.083850000000     0.089020000000    -0.0204512  
C354     C      0.609320000000     0.076990000000     0.020690000000    -0.0200419  
C355     C      0.607930000000     0.025440000000     0.022840000000    -0.0204546  
C356     C      0.639560000000     0.051870000000     0.040230000000     0.0128856  
C357     C      0.639920000000     0.081070000000     0.039600000000     0.0135845  
C358     C      0.666430000000     0.109590000000     0.055900000000    -0.0662438  
C359     C      0.723520000000     0.134020000000     0.091130000000    -0.0202915  
C360     C      0.666410000000     0.049910000000     0.055920000000    -0.0649468  
C361     C      0.692930000000     0.107530000000     0.072210000000     0.0136533  
C362     C      0.693270000000     0.078700000000     0.071600000000     0.0128454  
C363     C      0.172480000000     0.871300000000     0.467510000000    -0.0207737  
C364     C      0.203260000000     0.840670000000     0.645280000000    -0.0208767  
C365     C      0.178960000000     0.874820000000     0.647730000000    -0.0203537  
C366     C      0.185260000000     0.869370000000     0.598760000000     0.0131686  
C367     C      0.200610000000     0.851270000000     0.597520000000     0.0135136  
C368     C      0.209590000000     0.843280000000     0.555130000000    -0.06567    
C369     C      0.206620000000     0.847000000000     0.465060000000    -0.0204389  
C370     C      0.175170000000     0.877710000000     0.557660000000    -0.0656158  
C371     C      0.201190000000     0.853310000000     0.514020000000     0.013231   
C372     C      0.183090000000     0.868680000000     0.515260000000     0.0134413  
C373     C      0.129330000000     0.828150000000     0.967520000000    -0.0208251  
C374     C      0.159920000000     0.797330000000     0.145280000000    -0.0208268  
C375     C      0.125790000000     0.821650000000     0.147730000000    -0.0204753  
C376     C      0.131240000000     0.815350000000     0.098760000000     0.0132208  
C377     C      0.149330000000     0.799980000000     0.097530000000     0.0134947  
C378     C      0.157320000000     0.791010000000     0.055130000000    -0.065683   
C379     C      0.153610000000     0.793990000000     0.965060000000    -0.0205691  
C380     C      0.122910000000     0.825460000000     0.057660000000    -0.0656423  
C381     C      0.147300000000     0.799420000000     0.014030000000     0.0133375  
C382     C      0.131950000000     0.817530000000     0.015270000000     0.0135281  
C383     C      0.390210000000     0.925300000000     0.924450000000    -0.0202388  
C384     C      0.274480000000     0.918290000000     0.856560000000    -0.020564   
C385     C      0.275890000000     0.868140000000     0.854460000000    -0.0202755  
C386     C      0.306510000000     0.894670000000     0.873240000000     0.0136659  
C387     C      0.306140000000     0.923490000000     0.873840000000     0.0128204  
C388     C      0.333020000000     0.952300000000     0.889420000000    -0.0648667  
C389     C      0.391560000000     0.976830000000     0.922300000000    -0.0204517  
C390     C      0.333050000000     0.892650000000     0.889450000000    -0.0663105  
C391     C      0.359920000000     0.950380000000     0.905010000000     0.0127859  
C392     C      0.359570000000     0.921200000000     0.905640000000     0.0136639  
C393     C      0.795980000000     0.636810000000     0.800860000000    -0.0208465  
C394     C      0.826750000000     0.698200000000     0.978570000000    -0.0209389  
C395     C      0.792620000000     0.639780000000     0.981070000000    -0.020505   
C396     C      0.798020000000     0.651520000000     0.932100000000     0.0132044  
C397     C      0.816110000000     0.684960000000     0.930830000000     0.0135008  
C398     C      0.824040000000     0.701920000000     0.888430000000    -0.0656535  
C399     C      0.820230000000     0.695230000000     0.798360000000    -0.0203808  
C400     C      0.789650000000     0.633090000000     0.891010000000    -0.0656563  
C401     C      0.813970000000     0.683490000000     0.847340000000     0.0131834  
C402     C      0.798640000000     0.650050000000     0.848600000000     0.0134889  
C403     C      0.873400000000     0.695270000000     0.298410000000    -0.0204046  
C404     C      0.845740000000     0.639830000000     0.481130000000    -0.020525   
C405     C      0.869970000000     0.698250000000     0.478620000000    -0.0207166  
C406     C      0.867360000000     0.685020000000     0.430890000000     0.0134216  
C407     C      0.852040000000     0.651570000000     0.432160000000     0.0132622  
C408     C      0.841970000000     0.633140000000     0.391070000000    -0.0656618  
C409     C      0.839290000000     0.636850000000     0.300920000000    -0.0207771  
C410     C      0.876340000000     0.701970000000     0.388470000000    -0.0656197  
C411     C      0.849880000000     0.650090000000     0.348660000000     0.0134779  
C412     C      0.867960000000     0.683540000000     0.347390000000     0.0132091  
C413     C      0.724770000000     0.643110000000     0.589350000000    -0.0204986  
C414     C      0.609250000000     0.534430000000     0.521090000000    -0.0203578  
C415     C      0.607810000000     0.584570000000     0.523180000000    -0.0205738  
C416     C      0.639440000000     0.589770000000     0.540580000000     0.0128245  
C417     C      0.639840000000     0.560950000000     0.539980000000     0.0136961  
C418     C      0.666360000000     0.558940000000     0.556300000000    -0.0663479  
C419     C      0.723450000000     0.591600000000     0.591510000000    -0.0202159  
C420     C      0.666290000000     0.618570000000     0.556260000000    -0.0648775  
C421     C      0.692840000000     0.587480000000     0.572590000000     0.0136687  
C422     C      0.693170000000     0.616660000000     0.571950000000     0.0128226  
C423     C      0.942470000000     0.743470000000     0.687950000000    -0.0202586  
C424     C      0.058150000000     0.750530000000     0.756190000000    -0.0205591  
C425     C      0.056700000000     0.800670000000     0.758270000000    -0.0202482  
C426     C      0.026110000000     0.774140000000     0.739410000000     0.013578   
C427     C      0.026500000000     0.745330000000     0.738820000000     0.0128169  
C428     C      0.999660000000     0.716510000000     0.723170000000    -0.0648934  
C429     C      0.941170000000     0.691960000000     0.690120000000    -0.0205572  
C430     C      0.999580000000     0.776140000000     0.723120000000    -0.0662061  
C431     C      0.972770000000     0.718420000000     0.707490000000     0.0128669  
C432     C      0.973090000000     0.747590000000     0.706850000000     0.0136278  
H1       H      0.809210000000     0.053730000000     0.654680000000     0.0438272  
H2       H      0.734350000000     0.056210000000     0.657990000000     0.0430223  
H3       H      0.692600000000     0.000860000000     0.722560000000     0.0447449  
H4       H      0.797580000000     0.000850000000     0.722560000000     0.0436949  
H5       H      0.750180000000     0.931600000000     0.732000000000     0.0432781  
H6       H      0.679070000000     0.945510000000     0.787130000000     0.043013   
H7       H      0.819360000000     0.070100000000     0.713150000000     0.0432734  
H8       H      0.743150000000     0.072030000000     0.716830000000     0.0444933  
H9       H      0.672050000000     0.929670000000     0.728300000000     0.0444908  
H10      H      0.756420000000     0.947990000000     0.790460000000     0.0438398  
H11      H      0.931660000000     0.278920000000     0.620840000000     0.0430289  
H12      H      0.856800000000     0.281400000000     0.624150000000     0.0438322  
H13      H      0.868440000000     0.334280000000     0.556280000000     0.0437245  
H14      H      0.973420000000     0.334280000000     0.556290000000     0.0447482  
H15      H      0.993970000000     0.405470000000     0.550570000000     0.0444798  
H16      H      0.909610000000     0.387160000000     0.488410000000     0.0438461  
H17      H      0.922870000000     0.263100000000     0.562000000000     0.0444889  
H18      H      0.846660000000     0.265040000000     0.565680000000     0.0432845  
H19      H      0.915840000000     0.403530000000     0.546870000000     0.043307   
H20      H      0.986950000000     0.389640000000     0.491740000000     0.0429935  
H21      H      0.089470000000     0.614800000000     0.457740000000     0.0438107  
H22      H      0.012150000000     0.612350000000     0.454380000000     0.0430245  
H23      H      0.025700000000     0.667690000000     0.389740000000     0.0447784  
H24      H      0.130650000000     0.667630000000     0.389800000000     0.043716   
H25      H      0.152470000000     0.736870000000     0.380280000000     0.0432953  
H26      H      0.067470000000     0.723000000000     0.325120000000     0.043007   
H27      H      0.083240000000     0.598400000000     0.399290000000     0.0432618  
H28      H      0.005120000000     0.596500000000     0.395560000000     0.0444912  
H29      H      0.076300000000     0.738870000000     0.383930000000     0.0444857  
H30      H      0.142300000000     0.720460000000     0.321840000000     0.0438477  
H31      H      0.598630000000     0.612270000000     0.954150000000     0.0429978  
H32      H      0.523810000000     0.614810000000     0.957440000000     0.0438237  
H33      H      0.535420000000     0.667590000000     0.889370000000     0.0437163  
H34      H      0.640360000000     0.667530000000     0.889410000000     0.0448144  
H35      H      0.660950000000     0.738710000000     0.883450000000     0.0444765  
H36      H      0.576570000000     0.720350000000     0.821320000000     0.0438685  
H37      H      0.589780000000     0.596360000000     0.895360000000     0.0445018  
H38      H      0.513600000000     0.598360000000     0.899020000000     0.0432866  
H39      H      0.582820000000     0.736810000000     0.879730000000     0.0433128  
H40      H      0.653880000000     0.722800000000     0.824670000000     0.043      
H41      H      0.249260000000     0.070240000000     0.213370000000     0.043274   
H42      H      0.327350000000     0.072070000000     0.217130000000     0.0444962  
H43      H      0.306710000000     0.000870000000     0.223020000000     0.0447704  
H44      H      0.201810000000     0.001020000000     0.222920000000     0.0437155  
H45      H      0.190130000000     0.948200000000     0.290930000000     0.0438216  
H46      H      0.256100000000     0.929720000000     0.228880000000     0.0444885  
H47      H      0.243020000000     0.053810000000     0.154930000000     0.0438382  
H48      H      0.320300000000     0.056190000000     0.158330000000     0.0430326  
H49      H      0.264930000000     0.945610000000     0.287680000000     0.0430004  
H50      H      0.179940000000     0.931770000000     0.232500000000     0.0432696  
H51      H      0.409990000000     0.405510000000     0.050400000000     0.0445006  
H52      H      0.486140000000     0.403460000000     0.046770000000     0.0432444  
H53      H      0.464270000000     0.334200000000     0.056270000000     0.0437227  
H54      H      0.359370000000     0.334350000000     0.056180000000     0.0448073  
H55      H      0.345770000000     0.279010000000     0.120810000000     0.0430417  
H56      H      0.416820000000     0.264980000000     0.065740000000     0.0433086  
H57      H      0.401170000000     0.389660000000     0.991580000000     0.0429157  
H58      H      0.475980000000     0.387070000000     0.988320000000     0.0436912  
H59      H      0.423060000000     0.281380000000     0.124190000000     0.0438395  
H60      H      0.338730000000     0.263150000000     0.061990000000     0.0445406  
H61      H      0.620800000000     0.802000000000     0.458840000000     0.0422822  
H62      H      0.710400000000     0.854930000000     0.464230000000     0.0461599  
H63      H      0.727030000000     0.839350000000     0.558160000000     0.0439945  
H64      H      0.605960000000     0.778800000000     0.553560000000     0.0440019  
H65      H      0.622540000000     0.810770000000     0.647630000000     0.0461758  
H66      H      0.705450000000     0.806760000000     0.656590000000     0.0441648  
H67      H      0.627540000000     0.768040000000     0.455000000000     0.044194   
H68      H      0.713840000000     0.819180000000     0.457350000000     0.0411514  
H69      H      0.712180000000     0.847460000000     0.652990000000     0.0422692  
H70      H      0.619170000000     0.771580000000     0.654270000000     0.0411193  
H71      H      0.705470000000     0.900790000000     0.156570000000     0.0441736  
H72      H      0.619190000000     0.849740000000     0.154250000000     0.0411426  
H73      H      0.605980000000     0.829340000000     0.053530000000     0.0440369  
H74      H      0.727050000000     0.889790000000     0.058130000000     0.0440232  
H75      H      0.713860000000     0.896800000000     0.957330000000     0.0410985  
H76      H      0.620820000000     0.820990000000     0.958790000000     0.042258   
H77      H      0.712200000000     0.866810000000     0.152940000000     0.0422632  
H78      H      0.622560000000     0.813930000000     0.147590000000     0.0461912  
H79      H      0.627570000000     0.861700000000     0.954980000000     0.0441542  
H80      H      0.710430000000     0.857600000000     0.964180000000     0.0461182  
H81      H      0.819360000000     0.751320000000     0.213360000000     0.0433032  
H82      H      0.743160000000     0.673220000000     0.217080000000     0.0445189  
H83      H      0.692600000000     0.693860000000     0.222790000000     0.0447836  
H84      H      0.797570000000     0.798780000000     0.222750000000     0.0436915  
H85      H      0.756410000000     0.810480000000     0.290630000000     0.0438297  
H86      H      0.672040000000     0.744500000000     0.228500000000     0.0444867  
H87      H      0.809200000000     0.757540000000     0.154880000000     0.0438534  
H88      H      0.734360000000     0.680250000000     0.158240000000     0.0430457  
H89      H      0.679080000000     0.735680000000     0.287340000000     0.0430028  
H90      H      0.750190000000     0.820660000000     0.232170000000     0.0432775  
H91      H      0.576570000000     0.858420000000     0.321120000000     0.0438388  
H92      H      0.653880000000     0.933230000000     0.324460000000     0.0430188  
H93      H      0.640350000000     0.974990000000     0.389160000000     0.0448026  
H94      H      0.535410000000     0.870050000000     0.389150000000     0.0436888  
H95      H      0.513590000000     0.917460000000     0.398770000000     0.0433103  
H96      H      0.598610000000     0.988520000000     0.453860000000     0.0430152  
H97      H      0.582810000000     0.848210000000     0.379550000000     0.0433022  
H98      H      0.660940000000     0.924390000000     0.383260000000     0.0445086  
H99      H      0.589760000000     0.995600000000     0.395070000000     0.0445056  
H100     H      0.523810000000     0.911200000000     0.457190000000     0.0438414  
H101     H      0.955610000000     0.480220000000     0.814730000000     0.0461311  
H102     H      0.045220000000     0.533160000000     0.820120000000     0.0422589  
H103     H      0.060060000000     0.556340000000     0.725400000000     0.0439776  
H104     H      0.938990000000     0.495790000000     0.720780000000     0.0440068  
H105     H      0.953850000000     0.487670000000     0.625960000000     0.0423012  
H106     H      0.046860000000     0.563550000000     0.624680000000     0.041091   
H107     H      0.952170000000     0.515980000000     0.821580000000     0.0410991  
H108     H      0.038470000000     0.567110000000     0.823940000000     0.0441713  
H109     H      0.043480000000     0.524360000000     0.631320000000     0.0461598  
H110     H      0.960570000000     0.528370000000     0.622350000000     0.0441954  
H111     H      0.953840000000     0.468310000000     0.125980000000     0.0422837  
H112     H      0.043480000000     0.521190000000     0.131320000000     0.0461836  
H113     H      0.060070000000     0.505810000000     0.225400000000     0.043952   
H114     H      0.938990000000     0.445370000000     0.220800000000     0.0440138  
H115     H      0.955620000000     0.477590000000     0.314730000000     0.0461458  
H116     H      0.038470000000     0.473480000000     0.323960000000     0.0441678  
H117     H      0.960570000000     0.434330000000     0.122380000000     0.0441742  
H118     H      0.046850000000     0.485380000000     0.124690000000     0.0411224  
H119     H      0.045230000000     0.514190000000     0.320120000000     0.0422601  
H120     H      0.952170000000     0.438380000000     0.321610000000     0.0411214  
H121     H      0.856890000000     0.577490000000     0.124520000000     0.0438383  
H122     H      0.931720000000     0.654780000000     0.121170000000     0.0430182  
H123     H      0.973440000000     0.641220000000     0.056450000000     0.0447815  
H124     H      0.868470000000     0.536300000000     0.056490000000     0.0437068  
H125     H      0.915850000000     0.514430000000     0.046860000000     0.0432866  
H126     H      0.986920000000     0.599450000000     0.991740000000     0.0429223  
H127     H      0.846680000000     0.583740000000     0.066090000000     0.0433275  
H128     H      0.922890000000     0.661860000000     0.062360000000     0.0445171  
H129     H      0.994000000000     0.590600000000     0.050540000000     0.0445258  
H130     H      0.909600000000     0.524650000000     0.988440000000     0.0437223  
H131     H      0.285680000000     0.105000000000     0.988030000000     0.0411026  
H132     H      0.371970000000     0.140110000000     0.990390000000     0.0441763  
H133     H      0.393580000000     0.172590000000     0.891880000000     0.0439518  
H134     H      0.272500000000     0.112100000000     0.887250000000     0.0439559  
H135     H      0.294100000000     0.101200000000     0.788800000000     0.044188   
H136     H      0.376980000000     0.188090000000     0.797840000000     0.0461434  
H137     H      0.289110000000     0.144200000000     0.981240000000     0.0461448  
H138     H      0.378720000000     0.180820000000     0.986640000000     0.042256   
H139     H      0.380390000000     0.152300000000     0.791150000000     0.0411078  
H140     H      0.287360000000     0.135170000000     0.792460000000     0.0422684  
H141     H      0.294100000000     0.195080000000     0.288730000000     0.0441702  
H142     H      0.380390000000     0.230210000000     0.291070000000     0.0411147  
H143     H      0.393580000000     0.223080000000     0.391840000000     0.0439993  
H144     H      0.272510000000     0.162590000000     0.387230000000     0.0439945  
H145     H      0.285700000000     0.182860000000     0.487980000000     0.0411383  
H146     H      0.378730000000     0.200010000000     0.486640000000     0.0422712  
H147     H      0.287350000000     0.154380000000     0.292470000000     0.0422598  
H148     H      0.376970000000     0.191010000000     0.297850000000     0.0461808  
H149     H      0.371990000000     0.233970000000     0.490320000000     0.0441834  
H150     H      0.289120000000     0.147080000000     0.481250000000     0.0461684  
H151     H      0.486100000000     0.084830000000     0.546310000000     0.0432845  
H152     H      0.409950000000     0.006650000000     0.549990000000     0.0444741  
H153     H      0.359340000000     0.027200000000     0.556000000000     0.0447666  
H154     H      0.464230000000     0.132190000000     0.556040000000     0.0437091  
H155     H      0.423070000000     0.143730000000     0.624170000000     0.0438359  
H156     H      0.338690000000     0.077750000000     0.562040000000     0.04451    
H157     H      0.475860000000     0.091080000000     0.487900000000     0.0438183  
H158     H      0.401090000000     0.013750000000     0.491210000000     0.0429737  
H159     H      0.345800000000     0.068890000000     0.620810000000     0.0430159  
H160     H      0.416790000000     0.153970000000     0.565770000000     0.0433139  
H161     H      0.083220000000     0.486940000000     0.899330000000     0.0432643  
H162     H      0.005100000000     0.410760000000     0.895630000000     0.0444705  
H163     H      0.025700000000     0.360160000000     0.889800000000     0.0447794  
H164     H      0.130630000000     0.465110000000     0.889800000000     0.0436725  
H165     H      0.142260000000     0.423940000000     0.821810000000     0.0438344  
H166     H      0.076300000000     0.339560000000     0.883960000000     0.0444932  
H167     H      0.089460000000     0.476750000000     0.957780000000     0.0437906  
H168     H      0.012150000000     0.401920000000     0.954450000000     0.0429686  
H169     H      0.067460000000     0.346620000000     0.825150000000     0.0430137  
H170     H      0.152460000000     0.417700000000     0.880250000000     0.0432883  
H171     H      0.190220000000     0.244080000000     0.791160000000     0.043836   
H172     H      0.264980000000     0.321420000000     0.787850000000     0.0429767  
H173     H      0.306740000000     0.307960000000     0.723070000000     0.0447853  
H174     H      0.201860000000     0.202960000000     0.723050000000     0.0436766  
H175     H      0.249300000000     0.181180000000     0.713330000000     0.0432579  
H176     H      0.320290000000     0.266270000000     0.658280000000     0.0430051  
H177     H      0.179980000000     0.250330000000     0.732750000000     0.0433107  
H178     H      0.256130000000     0.328510000000     0.729070000000     0.0444736  
H179     H      0.327400000000     0.257410000000     0.717060000000     0.0444866  
H180     H      0.243020000000     0.191420000000     0.654930000000     0.0437956  
H181     H      0.472280000000     0.434340000000     0.622190000000     0.0441818  
H182     H      0.437070000000     0.485450000000     0.624440000000     0.0411079  
H183     H      0.444260000000     0.505860000000     0.725170000000     0.0439987  
H184     H      0.504840000000     0.445310000000     0.720660000000     0.0440069  
H185     H      0.484640000000     0.438310000000     0.821440000000     0.0411318  
H186     H      0.467430000000     0.514190000000     0.819920000000     0.0422417  
H187     H      0.512960000000     0.468290000000     0.625850000000     0.0422979  
H188     H      0.476240000000     0.521240000000     0.631130000000     0.046171   
H189     H      0.433490000000     0.473500000000     0.823720000000     0.0441472  
H190     H      0.520400000000     0.477500000000     0.814610000000     0.0461582  
H191     H      0.532290000000     0.487620000000     0.125840000000     0.0422993  
H192     H      0.479370000000     0.524380000000     0.131130000000     0.0461726  
H193     H      0.494770000000     0.556370000000     0.225170000000     0.0439813  
H194     H      0.555270000000     0.495730000000     0.220650000000     0.0439764  
H195     H      0.523100000000     0.480190000000     0.314610000000     0.046171   
H196     H      0.527130000000     0.567120000000     0.323720000000     0.044177   
H197     H      0.566250000000     0.528310000000     0.122190000000     0.0441955  
H198     H      0.515170000000     0.563550000000     0.124450000000     0.0411263  
H199     H      0.486440000000     0.533190000000     0.319930000000     0.0422737  
H200     H      0.562280000000     0.515930000000     0.321430000000     0.0411383  
H201     H      0.895700000000     0.182860000000     0.987900000000     0.0411298  
H202     H      0.860540000000     0.234020000000     0.990180000000     0.0441536  
H203     H      0.828000000000     0.223090000000     0.891700000000     0.0440067  
H204     H      0.888550000000     0.162510000000     0.887170000000     0.0439681  
H205     H      0.899360000000     0.194930000000     0.788640000000     0.0441714  
H206     H      0.812460000000     0.190940000000     0.797720000000     0.0461736  
H207     H      0.856520000000     0.147090000000     0.981190000000     0.0461775  
H208     H      0.819850000000     0.200090000000     0.986500000000     0.0422486  
H209     H      0.848220000000     0.230130000000     0.790940000000     0.0411437  
H210     H      0.865420000000     0.154250000000     0.792390000000     0.0422484  
H211     H      0.853550000000     0.144180000000     0.481110000000     0.0461649  
H212     H      0.800600000000     0.180880000000     0.486430000000     0.0422944  
H213     H      0.777510000000     0.172660000000     0.391660000000     0.0439687  
H214     H      0.838060000000     0.112070000000     0.387130000000     0.0439815  
H215     H      0.846250000000     0.135120000000     0.292330000000     0.0422726  
H216     H      0.770390000000     0.152340000000     0.290930000000     0.0410865  
H217     H      0.817800000000     0.105000000000     0.487890000000     0.0411205  
H218     H      0.766650000000     0.140200000000     0.490180000000     0.0441937  
H219     H      0.809570000000     0.188110000000     0.297640000000     0.0461388  
H220     H      0.805560000000     0.101180000000     0.288650000000     0.0441763  
H221     H      0.150920000000     0.381340000000     0.654940000000     0.0411068  
H222     H      0.099850000000     0.295030000000     0.657280000000     0.0441765  
H223     H      0.110760000000     0.273440000000     0.558800000000     0.0439684  
H224     H      0.171230000000     0.394540000000     0.554190000000     0.0439759  
H225     H      0.138780000000     0.372940000000     0.455690000000     0.0441751  
H226     H      0.142850000000     0.290050000000     0.464800000000     0.0461612  
H227     H      0.186710000000     0.377940000000     0.648210000000     0.0461462  
H228     H      0.133820000000     0.288300000000     0.653580000000     0.0422625  
H229     H      0.103660000000     0.286640000000     0.458040000000     0.0411142  
H230     H      0.179480000000     0.379680000000     0.459420000000     0.0422902  
H231     H      0.232600000000     0.372970000000     0.955720000000     0.0441498  
H232     H      0.181510000000     0.286660000000     0.958060000000     0.0410811  
H233     H      0.161240000000     0.273460000000     0.058830000000     0.0440052  
H234     H      0.221730000000     0.394560000000     0.054220000000     0.0440044  
H235     H      0.228870000000     0.381360000000     0.154970000000     0.0411134  
H236     H      0.153030000000     0.288320000000     0.153620000000     0.0423028  
H237     H      0.198640000000     0.379710000000     0.959460000000     0.0422502  
H238     H      0.145730000000     0.290080000000     0.964830000000     0.0461327  
H239     H      0.193730000000     0.295060000000     0.157300000000     0.0441991  
H240     H      0.189680000000     0.377960000000     0.148240000000     0.0461639  
H241     H      0.944390000000     0.266240000000     0.158290000000     0.0430127  
H242     H      0.946840000000     0.191340000000     0.154990000000     0.0438372  
H243     H      0.999630000000     0.202930000000     0.223010000000     0.0436894  
H244     H      0.999670000000     0.307940000000     0.222990000000     0.0447642  
H245     H      0.070830000000     0.328480000000     0.228900000000     0.0444893  
H246     H      0.052430000000     0.244060000000     0.291030000000     0.0437882  
H247     H      0.928490000000     0.257400000000     0.217080000000     0.0444642  
H248     H      0.930400000000     0.181170000000     0.213410000000     0.0432719  
H249     H      0.068870000000     0.250310000000     0.232600000000     0.0432465  
H250     H      0.054940000000     0.321420000000     0.287700000000     0.0430045  
H251     H      0.404170000000     0.410780000000     0.395400000000     0.0444704  
H252     H      0.402190000000     0.486970000000     0.399040000000     0.0433053  
H253     H      0.332940000000     0.465150000000     0.389710000000     0.0437017  
H254     H      0.332990000000     0.360190000000     0.389760000000     0.0447962  
H255     H      0.277600000000     0.346600000000     0.325260000000     0.0430008  
H256     H      0.263700000000     0.417720000000     0.380390000000     0.0432811  
H257     H      0.388380000000     0.401990000000     0.454250000000     0.043016   
H258     H      0.385860000000     0.476850000000     0.457520000000     0.043878   
H259     H      0.280050000000     0.423940000000     0.321910000000     0.0438632  
H260     H      0.261790000000     0.339590000000     0.384100000000     0.0444546  
H261     H      0.523180000000     0.045100000000     0.814220000000     0.0461416  
H262     H      0.486560000000     0.955470000000     0.819610000000     0.0422722  
H263     H      0.494830000000     0.940620000000     0.724860000000     0.0439774  
H264     H      0.555280000000     0.061710000000     0.720240000000     0.0439699  
H265     H      0.532240000000     0.046850000000     0.625440000000     0.0422777  
H266     H      0.515150000000     0.953820000000     0.624130000000     0.0411236  
H267     H      0.562370000000     0.048520000000     0.821030000000     0.0410992  
H268     H      0.527260000000     0.962220000000     0.823390000000     0.0441674  
H269     H      0.479350000000     0.957210000000     0.630810000000     0.0461637  
H270     H      0.566210000000     0.040120000000     0.621790000000     0.0441782  
H271     H      0.513000000000     0.046850000000     0.125440000000     0.0422675  
H272     H      0.476350000000     0.957210000000     0.130810000000     0.0461689  
H273     H      0.444320000000     0.940600000000     0.224820000000     0.0439811  
H274     H      0.504820000000     0.061700000000     0.220220000000     0.0439706  
H275     H      0.520350000000     0.045080000000     0.314220000000     0.0461377  
H276     H      0.433480000000     0.962190000000     0.323310000000     0.044166   
H277     H      0.472310000000     0.040110000000     0.121730000000     0.0441691  
H278     H      0.437160000000     0.953810000000     0.124060000000     0.0411161  
H279     H      0.467440000000     0.955450000000     0.319590000000     0.0422561  
H280     H      0.484570000000     0.048500000000     0.320980000000     0.0410932  
H281     H      0.595240000000     0.006710000000     0.050110000000     0.0445083  
H282     H      0.597190000000     0.084870000000     0.046400000000     0.0432496  
H283     H      0.666440000000     0.132260000000     0.055890000000     0.0437014  
H284     H      0.666400000000     0.027250000000     0.055940000000     0.0448157  
H285     H      0.721700000000     0.068970000000     0.120570000000     0.0429983  
H286     H      0.735680000000     0.154020000000     0.065420000000     0.0433129  
H287     H      0.611090000000     0.013740000000     0.991300000000     0.0429338  
H288     H      0.613590000000     0.091100000000     0.987950000000     0.0437107  
H289     H      0.719250000000     0.143860000000     0.123850000000     0.0438559  
H290     H      0.737580000000     0.077790000000     0.061770000000     0.0444803  
H291     H      0.153010000000     0.866840000000     0.653440000000     0.0422399  
H292     H      0.189720000000     0.813880000000     0.648140000000     0.0461664  
H293     H      0.221760000000     0.829310000000     0.554140000000     0.0439772  
H294     H      0.161200000000     0.889880000000     0.558650000000     0.0439583  
H295     H      0.145690000000     0.857760000000     0.464670000000     0.0461249  
H296     H      0.232580000000     0.861730000000     0.455620000000     0.0441702  
H297     H      0.193700000000     0.900790000000     0.657150000000     0.044145   
H298     H      0.228890000000     0.849650000000     0.654880000000     0.041124   
H299     H      0.198640000000     0.821050000000     0.459360000000     0.0422749  
H300     H      0.181460000000     0.896940000000     0.457890000000     0.04109    
H301     H      0.099830000000     0.806920000000     0.157150000000     0.044179   
H302     H      0.150930000000     0.771690000000     0.154880000000     0.0411104  
H303     H      0.171280000000     0.778830000000     0.054140000000     0.0440099  
H304     H      0.110750000000     0.839440000000     0.058650000000     0.0439921  
H305     H      0.103700000000     0.819190000000     0.957890000000     0.0410776  
H306     H      0.179560000000     0.801960000000     0.959370000000     0.0422651  
H307     H      0.133770000000     0.847600000000     0.153450000000     0.0422832  
H308     H      0.186710000000     0.810860000000     0.148150000000     0.0461612  
H309     H      0.138870000000     0.768020000000     0.955620000000     0.0441656  
H310     H      0.142880000000     0.854950000000     0.964680000000     0.0461102  
H311     H      0.263800000000     0.848170000000     0.880220000000     0.0432843  
H312     H      0.261830000000     0.924350000000     0.883860000000     0.0444758  
H313     H      0.333010000000     0.974960000000     0.889410000000     0.0447456  
H314     H      0.333060000000     0.869990000000     0.889460000000     0.0436885  
H315     H      0.386000000000     0.911210000000     0.957200000000     0.0438237  
H316     H      0.404210000000     0.995550000000     0.894980000000     0.0444481  
H317     H      0.280100000000     0.858270000000     0.821720000000     0.0438637  
H318     H      0.277580000000     0.933130000000     0.824990000000     0.0430219  
H319     H      0.388440000000     0.988570000000     0.953850000000     0.0429609  
H320     H      0.402310000000     0.917430000000     0.898700000000     0.043286   
H321     H      0.800620000000     0.621810000000     0.986770000000     0.0422374  
H322     H      0.853540000000     0.711430000000     0.981390000000     0.0461414  
H323     H      0.838000000000     0.728050000000     0.887420000000     0.0439702  
H324     H      0.777500000000     0.606960000000     0.892020000000     0.0439664  
H325     H      0.809530000000     0.623560000000     0.797980000000     0.0461632  
H326     H      0.805460000000     0.706450000000     0.788960000000     0.0441453  
H327     H      0.766670000000     0.628550000000     0.990540000000     0.0441621  
H328     H      0.817780000000     0.714860000000     0.988190000000     0.0411048  
H329     H      0.846160000000     0.713210000000     0.792610000000     0.0422559  
H330     H      0.770340000000     0.620160000000     0.791280000000     0.0411028  
H331     H      0.856400000000     0.711490000000     0.481450000000     0.0461221  
H332     H      0.819800000000     0.621860000000     0.486850000000     0.0422969  
H333     H      0.828010000000     0.607010000000     0.392090000000     0.0439811  
H334     H      0.888480000000     0.728100000000     0.387460000000     0.0439739  
H335     H      0.865410000000     0.713240000000     0.292660000000     0.0422572  
H336     H      0.848280000000     0.620190000000     0.291350000000     0.0410937  
H337     H      0.895600000000     0.714920000000     0.488230000000     0.0410831  
H338     H      0.860500000000     0.628620000000     0.490590000000     0.0442066  
H339     H      0.812500000000     0.623610000000     0.298060000000     0.0461464  
H340     H      0.899370000000     0.706500000000     0.288990000000     0.0441717  
H341     H      0.610960000000     0.599430000000     0.491620000000     0.0430224  
H342     H      0.613520000000     0.524600000000     0.488360000000     0.043871   
H343     H      0.666380000000     0.536290000000     0.556310000000     0.0437178  
H344     H      0.666260000000     0.641220000000     0.556250000000     0.0447549  
H345     H      0.737450000000     0.661850000000     0.562080000000     0.0444824  
H346     H      0.719200000000     0.577500000000     0.624250000000     0.0438309  
H347     H      0.595110000000     0.590600000000     0.550440000000     0.0445131  
H348     H      0.597130000000     0.514440000000     0.546810000000     0.0433158  
H349     H      0.735610000000     0.583750000000     0.565820000000     0.0432762  
H350     H      0.721580000000     0.654810000000     0.620890000000     0.0429935  
H351     H      0.052440000000     0.810510000000     0.791010000000     0.0438161  
H352     H      0.055020000000     0.735680000000     0.787750000000     0.0430028  
H353     H      0.999690000000     0.693870000000     0.723180000000     0.0448003  
H354     H      0.999550000000     0.798790000000     0.723100000000     0.0436882  
H355     H      0.930320000000     0.751320000000     0.713660000000     0.0432826  
H356     H      0.944340000000     0.680260000000     0.658580000000     0.0430313  
H357     H      0.068810000000     0.820660000000     0.732540000000     0.0432688  
H358     H      0.070840000000     0.744490000000     0.728920000000     0.0444892  
H359     H      0.928490000000     0.673220000000     0.717400000000     0.0444883  
H360     H      0.946720000000     0.757570000000     0.655210000000     0.0438528  
N1       N      0.707560000000     0.924520000000     0.766850000000    -0.171496   
N2       N      0.783810000000     0.077190000000     0.678310000000    -0.171371   
N3       N      0.958470000000     0.410620000000     0.512040000000    -0.171436   
N4       N      0.882210000000     0.257940000000     0.600520000000    -0.171465   
N5       N      0.116920000000     0.743970000000     0.345410000000    -0.17147    
N6       N      0.040620000000     0.591340000000     0.434110000000    -0.171482   
N7       N      0.625430000000     0.743830000000     0.844900000000    -0.171447   
N8       N      0.549170000000     0.591280000000     0.933880000000    -0.171497   
N9       N      0.215480000000     0.924660000000     0.267380000000    -0.1714     
N10      N      0.291870000000     0.077250000000     0.178560000000    -0.171525   
N11      N      0.374210000000     0.257960000000     0.100550000000    -0.171422   
N12      N      0.450620000000     0.410600000000     0.011900000000    -0.171449   
N13      N      0.664690000000     0.811390000000     0.674400000000    -0.171303   
N14      N      0.668290000000     0.813470000000     0.437340000000    -0.171341   
N15      N      0.668320000000     0.856990000000     0.937310000000    -0.171363   
N16      N      0.664710000000     0.855410000000     0.174370000000    -0.171377   
N17      N      0.707560000000     0.785130000000     0.267010000000    -0.171482   
N18      N      0.783810000000     0.708690000000     0.178550000000    -0.171512   
N19      N      0.549150000000     0.960070000000     0.433600000000    -0.171409   
N20      N      0.625420000000     0.883770000000     0.344740000000    -0.171368   
N21      N      0.001340000000     0.523740000000     0.604540000000    -0.171354   
N22      N      0.997720000000     0.521690000000     0.841610000000    -0.17133    
N23      N      0.997730000000     0.478190000000     0.341620000000    -0.171343   
N24      N      0.001330000000     0.479710000000     0.104560000000    -0.171365   
N25      N      0.958460000000     0.549980000000     0.012010000000    -0.17144    
N26      N      0.882260000000     0.626360000000     0.100900000000    -0.171475   
N27      N      0.334860000000     0.146590000000     0.771030000000    -0.171347   
N28      N      0.331230000000     0.144800000000     0.008100000000    -0.171227   
N29      N      0.331240000000     0.188570000000     0.508070000000    -0.171317   
N30      N      0.334850000000     0.190400000000     0.271010000000    -0.171348   
N31      N      0.374200000000     0.118370000000     0.600590000000    -0.17148    
N32      N      0.450550000000     0.042210000000     0.511470000000    -0.171474   
N33      N      0.116910000000     0.375080000000     0.845420000000    -0.171475   
N34      N      0.040610000000     0.451390000000     0.934160000000    -0.171526   
N35      N      0.291890000000     0.216790000000     0.678510000000    -0.171483   
N36      N      0.215530000000     0.292950000000     0.767590000000    -0.171482   
N37      N      0.478910000000     0.478150000000     0.841440000000    -0.171376   
N38      N      0.476900000000     0.479740000000     0.604370000000    -0.171402   
N39      N      0.522460000000     0.521690000000     0.341440000000    -0.171301   
N40      N      0.520870000000     0.523710000000     0.104370000000    -0.171344   
N41      N      0.853960000000     0.190300000000     0.770900000000    -0.17138    
N42      N      0.855890000000     0.188610000000     0.007970000000    -0.171227   
N43      N      0.810200000000     0.146600000000     0.270860000000    -0.171363   
N44      N      0.812060000000     0.144830000000     0.507930000000    -0.171292   
N45      N      0.143460000000     0.332180000000     0.437960000000    -0.171349   
N46      N      0.145230000000     0.335800000000     0.675030000000    -0.171339   
N47      N      0.189070000000     0.335820000000     0.175060000000    -0.171291   
N48      N      0.187200000000     0.332210000000     0.937990000000    -0.17142    
N49      N      0.075930000000     0.292930000000     0.267450000000    -0.171396   
N50      N      0.923370000000     0.216760000000     0.178540000000    -0.171454   
N51      N      0.256610000000     0.375080000000     0.345550000000    -0.17147    
N52      N      0.409320000000     0.451440000000     0.433910000000    -0.171299   
N53      N      0.520830000000     0.999350000000     0.604020000000    -0.171279   
N54      N      0.522570000000     0.002970000000     0.841080000000    -0.171337   
N55      N      0.478880000000     0.002950000000     0.341050000000    -0.171386   
N56      N      0.476970000000     0.999350000000     0.103990000000    -0.171294   
N57      N      0.742720000000     0.118440000000     0.100290000000    -0.171441   
N58      N      0.590110000000     0.042230000000     0.011560000000    -0.17136    
N59      N      0.187180000000     0.857100000000     0.437860000000    -0.171405   
N60      N      0.189060000000     0.855380000000     0.674930000000    -0.171463   
N61      N      0.143520000000     0.813450000000     0.937860000000    -0.171332   
N62      N      0.145220000000     0.811530000000     0.174930000000    -0.171346   
N63      N      0.409420000000     0.960070000000     0.933530000000    -0.171472   
N64      N      0.256650000000     0.883680000000     0.845360000000    -0.17142    
N65      N      0.810130000000     0.665700000000     0.771180000000    -0.171332   
N66      N      0.812070000000     0.669310000000     0.008240000000    -0.171247   
N67      N      0.853980000000     0.665730000000     0.271240000000    -0.171371   
N68      N      0.855810000000     0.669370000000     0.508300000000    -0.17133    
N69      N      0.742630000000     0.626360000000     0.600640000000    -0.171466   
N70      N      0.590010000000     0.549970000000     0.511930000000    -0.171375   
N71      N      0.923300000000     0.708700000000     0.678830000000    -0.171384   
N72      N      0.075950000000     0.785140000000     0.767410000000    -0.171474   
Ni1      Ni     0.830340000000     0.641450000000     0.643710000000     1.00131    
Ni2      Ni     0.835590000000     0.693610000000     0.635760000000     1.00149    
Ni3      Ni     0.168970000000     0.810990000000     0.802460000000     1.0015     
Ni4      Ni     0.163620000000     0.857850000000     0.810330000000     1.00114    
Ni5      Ni     0.497110000000     0.975070000000     0.976500000000     1.00133    
Ni6      Ni     0.502420000000     0.027250000000     0.968570000000     1.00101    
Ni7      Ni     0.163610000000     0.307910000000     0.310470000000     1.00125    
Ni8      Ni     0.168920000000     0.360090000000     0.302550000000     1.00128    
Ni9      Ni     0.835690000000     0.144160000000     0.135470000000     1.00121    
Ni10     Ni     0.830400000000     0.191050000000     0.143360000000     1.00136    
Ni11     Ni     0.502350000000     0.477270000000     0.468970000000     1.00128    
Ni12     Ni     0.497000000000     0.524130000000     0.476840000000     1.00154    
Ni13     Ni     0.189630000000     0.360100000000     0.802560000000     1.00183    
Ni14     Ni     0.142800000000     0.307910000000     0.810470000000     1.00169    
Ni15     Ni     0.359120000000     0.191010000000     0.643520000000     1.00179    
Ni16     Ni     0.306970000000     0.144140000000     0.635590000000     1.00154    
Ni17     Ni     0.025620000000     0.524100000000     0.977030000000     1.00179    
Ni18     Ni     0.973440000000     0.477260000000     0.969120000000     1.00156    
Ni19     Ni     0.692590000000     0.857870000000     0.309820000000     1.0016     
Ni20     Ni     0.640400000000     0.811040000000     0.301900000000     1.00162    
Ni21     Ni     0.856460000000     0.693600000000     0.135770000000     1.0016     
Ni22     Ni     0.809600000000     0.641440000000     0.143700000000     1.00185    
Ni23     Ni     0.523270000000     0.027240000000     0.468580000000     1.00173    
Ni24     Ni     0.476440000000     0.975050000000     0.476480000000     1.00159    
Ni25     Ni     0.306960000000     0.164980000000     0.135580000000     1.00174    
Ni26     Ni     0.359120000000     0.170220000000     0.143530000000     1.00157    
Ni27     Ni     0.476480000000     0.503630000000     0.976840000000     1.00153    
Ni28     Ni     0.523320000000     0.498260000000     0.968970000000     1.00125    
Ni29     Ni     0.142770000000     0.837000000000     0.310340000000     1.00165    
Ni30     Ni     0.189620000000     0.831630000000     0.302460000000     1.00166    
Ni31     Ni     0.973450000000     0.498330000000     0.469120000000     1.00161    
Ni32     Ni     0.025630000000     0.503630000000     0.477040000000     1.00155    
Ni33     Ni     0.809570000000     0.170220000000     0.643360000000     1.00172    
Ni34     Ni     0.856450000000     0.164910000000     0.635470000000     1.00142    
Ni35     Ni     0.640410000000     0.831520000000     0.801900000000     1.0015     
Ni36     Ni     0.692590000000     0.836830000000     0.809820000000     1.00159    
O1       O      0.842090000000     0.644300000000     0.579190000000    -0.450251   
O2       O      0.818000000000     0.641650000000     0.707490000000    -0.449413   
O3       O      0.786320000000     0.623360000000     0.625140000000    -0.452256   
O4       O      0.875220000000     0.663220000000     0.661630000000    -0.44736    
O5       O      0.879600000000     0.711710000000     0.654330000000    -0.452206   
O6       O      0.790700000000     0.671850000000     0.617850000000    -0.447203   
O7       O      0.823840000000     0.690760000000     0.700280000000    -0.450188   
O8       O      0.847930000000     0.693410000000     0.571990000000    -0.449531   
O9       O      0.157250000000     0.802100000000     0.866990000000    -0.45025    
O10      O      0.181270000000     0.823510000000     0.738660000000    -0.449513   
O11      O      0.212990000000     0.836960000000     0.820980000000    -0.452314   
O12      O      0.124080000000     0.787820000000     0.784590000000    -0.447395   
O13      O      0.119600000000     0.831870000000     0.791820000000    -0.452294   
O14      O      0.208520000000     0.881020000000     0.828200000000    -0.447264   
O15      O      0.175340000000     0.866720000000     0.745800000000    -0.450497   
O16      O      0.151320000000     0.845330000000     0.874140000000    -0.449188   
O17      O      0.484800000000     0.975280000000     0.040280000000    -0.449467   
O18      O      0.508850000000     0.977910000000     0.911970000000    -0.450206   
O19      O      0.542000000000     0.996780000000     0.994390000000    -0.447141   
O20      O      0.453100000000     0.957020000000     0.957960000000    -0.452278   
O21      O      0.457530000000     0.005530000000     0.950680000000    -0.447268   
O22      O      0.546440000000     0.045300000000     0.987100000000    -0.452186   
O23      O      0.514730000000     0.027040000000     0.904770000000    -0.449179   
O24      O      0.490690000000     0.024410000000     0.033090000000    -0.450121   
O25      O      0.151290000000     0.308120000000     0.374260000000    -0.449447   
O26      O      0.175350000000     0.310750000000     0.245950000000    -0.450117   
O27      O      0.208500000000     0.329630000000     0.328370000000    -0.447293   
O28      O      0.119600000000     0.289860000000     0.291920000000    -0.452155   
O29      O      0.124040000000     0.338380000000     0.284650000000    -0.447314   
O30      O      0.212940000000     0.378140000000     0.321100000000    -0.452243   
O31      O      0.181240000000     0.359890000000     0.238760000000    -0.44926    
O32      O      0.157180000000     0.357250000000     0.367070000000    -0.450201   
O33      O      0.823930000000     0.135250000000     0.199990000000    -0.450166   
O34      O      0.848040000000     0.156700000000     0.071680000000    -0.449336   
O35      O      0.879700000000     0.170070000000     0.154050000000    -0.452096   
O36      O      0.790810000000     0.121040000000     0.117540000000    -0.447183   
O37      O      0.786390000000     0.165130000000     0.124780000000    -0.452241   
O38      O      0.875280000000     0.214160000000     0.161290000000    -0.447342   
O39      O      0.842160000000     0.199950000000     0.078840000000    -0.450207   
O40      O      0.818050000000     0.178500000000     0.207140000000    -0.44942    
O41      O      0.514650000000     0.489800000000     0.405170000000    -0.44949    
O42      O      0.490620000000     0.468390000000     0.533500000000    -0.450212   
O43      O      0.457460000000     0.454100000000     0.451090000000    -0.447082   
O44      O      0.546360000000     0.503240000000     0.487500000000    -0.452188   
O45      O      0.541880000000     0.547300000000     0.494730000000    -0.447373   
O46      O      0.452980000000     0.498170000000     0.458310000000    -0.451993   
O47      O      0.484690000000     0.511610000000     0.540640000000    -0.449469   
O48      O      0.508720000000     0.533020000000     0.412320000000    -0.450288   
O49      O      0.177100000000     0.359870000000     0.738750000000    -0.449561   
O50      O      0.198520000000     0.357270000000     0.867100000000    -0.450287   
O51      O      0.212820000000     0.338390000000     0.784730000000    -0.447579   
O52      O      0.163640000000     0.378140000000     0.821030000000    -0.452405   
O53      O      0.119610000000     0.329620000000     0.828300000000    -0.447406   
O54      O      0.168790000000     0.289870000000     0.791990000000    -0.452411   
O55      O      0.155330000000     0.308140000000     0.874280000000    -0.449507   
O56      O      0.133910000000     0.310740000000     0.745930000000    -0.450226   
O57      O      0.358910000000     0.178480000000     0.707320000000    -0.449493   
O58      O      0.356280000000     0.199910000000     0.578980000000    -0.450172   
O59      O      0.337370000000     0.214160000000     0.661360000000    -0.447517   
O60      O      0.377210000000     0.165070000000     0.625030000000    -0.452578   
O61      O      0.328730000000     0.121000000000     0.617740000000    -0.447685   
O62      O      0.288880000000     0.170090000000     0.654080000000    -0.452348   
O63      O      0.307180000000     0.156680000000     0.571790000000    -0.449431   
O64      O      0.309810000000     0.135250000000     0.700130000000    -0.450306   
O65      O      0.025400000000     0.511570000000     0.040840000000    -0.44936    
O66      O      0.022780000000     0.533000000000     0.912500000000    -0.450339   
O67      O      0.003910000000     0.547290000000     0.994870000000    -0.447587   
O68      O      0.043660000000     0.498120000000     0.958550000000    -0.452544   
O69      O      0.995160000000     0.454070000000     0.951290000000    -0.447487   
O70      O      0.955400000000     0.503250000000     0.987610000000    -0.452448   
O71      O      0.973660000000     0.489790000000     0.905320000000    -0.449454   
O72      O      0.976270000000     0.468370000000     0.033660000000    -0.450015   
O73      O      0.689760000000     0.866750000000     0.245270000000    -0.450256   
O74      O      0.692360000000     0.845350000000     0.373630000000    -0.449427   
O75      O      0.710630000000     0.831880000000     0.291360000000    -0.45238    
O76      O      0.670870000000     0.881070000000     0.327630000000    -0.447473   
O77      O      0.622360000000     0.837030000000     0.320360000000    -0.452482   
O78      O      0.662120000000     0.787840000000     0.284100000000    -0.44748    
O79      O      0.643230000000     0.802150000000     0.366450000000    -0.450184   
O80      O      0.640630000000     0.823560000000     0.238090000000    -0.449528   
O81      O      0.843950000000     0.693370000000     0.071960000000    -0.449487   
O82      O      0.865330000000     0.690770000000     0.200330000000    -0.450297   
O83      O      0.879620000000     0.671840000000     0.117980000000    -0.447467   
O84      O      0.830510000000     0.711690000000     0.154210000000    -0.452506   
O85      O      0.786450000000     0.663200000000     0.161490000000    -0.447654   
O86      O      0.835550000000     0.623350000000     0.125260000000    -0.452502   
O87      O      0.822110000000     0.641670000000     0.207520000000    -0.449562   
O88      O      0.800730000000     0.644260000000     0.079150000000    -0.450213   
O89      O      0.532160000000     0.024410000000     0.533120000000    -0.450228   
O90      O      0.510740000000     0.027020000000     0.404770000000    -0.449551   
O91      O      0.497280000000     0.045280000000     0.487060000000    -0.452499   
O92      O      0.546460000000     0.005530000000     0.450740000000    -0.447577   
O93      O      0.502430000000     0.957010000000     0.458000000000    -0.452506   
O94      O      0.453250000000     0.996760000000     0.494320000000    -0.447418   
O95      O      0.467550000000     0.977890000000     0.411940000000    -0.450263   
O96      O      0.488970000000     0.975270000000     0.540290000000    -0.449425   
O97      O      0.307180000000     0.152660000000     0.071790000000    -0.449499   
O98      O      0.309800000000     0.176710000000     0.200110000000    -0.45027    
O99      O      0.328730000000     0.209870000000     0.117700000000    -0.447597   
O100     O      0.288870000000     0.120950000000     0.154100000000    -0.452439   
O101     O      0.337350000000     0.125330000000     0.161400000000    -0.447514   
O102     O      0.377210000000     0.214250000000     0.125000000000    -0.452281   
O103     O      0.358900000000     0.182540000000     0.207320000000    -0.44941    
O104     O      0.356280000000     0.158490000000     0.079000000000    -0.450102   
O105     O      0.467590000000     0.491900000000     0.912310000000    -0.450223   
O106     O      0.489000000000     0.515930000000     0.040640000000    -0.449383   
O107     O      0.502450000000     0.547640000000     0.958320000000    -0.452376   
O108     O      0.453300000000     0.458740000000     0.994720000000    -0.447341   
O109     O      0.497340000000     0.454240000000     0.987490000000    -0.452372   
O110     O      0.546500000000     0.543150000000     0.951090000000    -0.447259   
O111     O      0.532210000000     0.509980000000     0.033500000000    -0.449964   
O112     O      0.510790000000     0.485950000000     0.905170000000    -0.449438   
O113     O      0.155300000000     0.849300000000     0.374130000000    -0.449496   
O114     O      0.133890000000     0.825270000000     0.245810000000    -0.450301   
O115     O      0.119600000000     0.792110000000     0.328220000000    -0.447457   
O116     O      0.168750000000     0.881020000000     0.291810000000    -0.452301   
O117     O      0.212790000000     0.876520000000     0.284580000000    -0.447598   
O118     O      0.163640000000     0.787610000000     0.320990000000    -0.452272   
O119     O      0.177090000000     0.819320000000     0.238660000000    -0.449535   
O120     O      0.198500000000     0.843350000000     0.366990000000    -0.450402   
O121     O      0.973670000000     0.486030000000     0.405320000000    -0.449472   
O122     O      0.976280000000     0.510050000000     0.533650000000    -0.450033   
O123     O      0.995170000000     0.543230000000     0.451260000000    -0.447436   
O124     O      0.955400000000     0.454310000000     0.487630000000    -0.452347   
O125     O      0.003910000000     0.458740000000     0.494900000000    -0.447481   
O126     O      0.043670000000     0.547660000000     0.458530000000    -0.452391   
O127     O      0.025410000000     0.515930000000     0.540840000000    -0.449393   
O128     O      0.022790000000     0.491920000000     0.412510000000    -0.450436   
O129     O      0.800700000000     0.158530000000     0.578820000000    -0.450187   
O130     O      0.822080000000     0.182500000000     0.707170000000    -0.449593   
O131     O      0.835510000000     0.214250000000     0.624890000000    -0.452408   
O132     O      0.786430000000     0.125320000000     0.661190000000    -0.447355   
O133     O      0.830510000000     0.120880000000     0.653940000000    -0.452329   
O134     O      0.879590000000     0.209820000000     0.617640000000    -0.447244   
O135     O      0.865310000000     0.176610000000     0.700010000000    -0.450352   
O136     O      0.843940000000     0.152630000000     0.571660000000    -0.449328   
O137     O      0.643250000000     0.843260000000     0.866420000000    -0.450222   
O138     O      0.640620000000     0.819200000000     0.738110000000    -0.44949    
O139     O      0.622370000000     0.787500000000     0.820440000000    -0.45237    
O140     O      0.662120000000     0.876410000000     0.784010000000    -0.44737    
O141     O      0.710630000000     0.880850000000     0.791290000000    -0.452391   
O142     O      0.670880000000     0.791940000000     0.827710000000    -0.447388   
O143     O      0.689750000000     0.825100000000     0.745300000000    -0.450231   
O144     O      0.692370000000     0.849150000000     0.873610000000    -0.449587   


