data_structure

_audit_creation_method RASPA-1.0
_audit_creation_date 2023-6-5
_audit_author_name 'Poobodin Mano'

_cell_length_a    28.1962
_cell_length_b    28.1701
_cell_length_c    33.381
_cell_angle_alpha 89.9844
_cell_angle_beta  90.0156
_cell_angle_gamma 119.985
_cell_volume      22965.4

_symmetry_cell_setting          triclinic
_symmetry_space_group_name_Hall 'P 1'
_symmetry_space_group_name_H-M  'P 1'
_symmetry_Int_Tables_number     1

_symmetry_equiv_pos_as_xyz 'x,y,z'

loop_
_atom_site_label
_atom_site_type_symbol
_atom_site_fract_x
_atom_site_fract_y
_atom_site_fract_z
_atom_site_charge
C1       C      0.921010000000     0.738440000000     0.269980000000     0.447419   
C2       C      0.856930000000     0.703020000000     0.414920000000     0.44647    
C3       C      0.790530000000     0.674890000000     0.316910000000     0.449748   
C4       C      0.986620000000     0.768020000000     0.366860000000     0.451534   
C5       C      0.247590000000     0.858020000000     0.352840000000     0.446999   
C6       C      0.186730000000     0.830070000000     0.498440000000     0.447507   
C7       C      0.118950000000     0.792530000000     0.402530000000     0.450726   
C8       C      0.316560000000     0.890810000000     0.449640000000     0.448774   
C9       C      0.574790000000     0.059020000000     0.441520000000     0.447831   
C10      C      0.513340000000     0.021610000000     0.086460000000     0.448597   
C11      C      0.448110000000     0.994440000000     0.490250000000     0.448113   
C12      C      0.645800000000     0.096530000000     0.038830000000     0.443334   
C13      C      0.203750000000     0.384480000000     0.250060000000     0.441294   
C14      C      0.239280000000     0.350890000000     0.105660000000     0.442529   
C15      C      0.320180000000     0.403140000000     0.195790000000     0.441563   
C16      C      0.117330000000     0.322820000000     0.161550000000     0.438088   
C17      C      0.909890000000     0.229710000000     0.027070000000     0.446921   
C18      C      0.849480000000     0.195780000000     0.172620000000     0.446114   
C19      C      0.784970000000     0.144510000000     0.076820000000     0.440545   
C20      C      0.979700000000     0.282770000000     0.123140000000     0.438692   
C21      C      0.587990000000     0.568070000000     0.183130000000     0.442032   
C22      C      0.534010000000     0.498500000000     0.326900000000     0.437588   
C23      C      0.458960000000     0.494410000000     0.233450000000     0.442105   
C24      C      0.658380000000     0.574960000000     0.275110000000     0.447631   
C25      C      0.192960000000     0.368800000000     0.357710000000     0.443019   
C26      C      0.260340000000     0.384780000000     0.501730000000     0.443873   
C27      C      0.277710000000     0.330590000000     0.407310000000     0.452336   
C28      C      0.180180000000     0.431900000000     0.450680000000     0.449075   
C29      C      0.362470000000     0.160170000000     0.413360000000     0.442558   
C30      C      0.377930000000     0.229610000000     0.269650000000     0.44087    
C31      C      0.310340000000     0.232870000000     0.362660000000     0.450867   
C32      C      0.432970000000     0.157230000000     0.322210000000     0.449632   
C33      C      0.031350000000     0.541240000000     0.441150000000     0.446322   
C34      C      0.063150000000     0.515790000000     0.087150000000     0.448161   
C35      C      0.084570000000     0.469970000000     0.492900000000     0.447505   
C36      C      0.999400000000     0.584450000000     0.036200000000     0.442951   
C37      C      0.733190000000     0.914320000000     0.115710000000     0.446471   
C38      C      0.758440000000     0.880600000000     0.261830000000     0.444417   
C39      C      0.795230000000     0.847140000000     0.164920000000     0.441952   
C40      C      0.702240000000     0.953400000000     0.211250000000     0.443355   
C41      C      0.914000000000     0.705600000000     0.165210000000     0.446946   
C42      C      0.877900000000     0.733770000000     0.020300000000     0.44397    
C43      C      0.832130000000     0.751700000000     0.118690000000     0.440929   
C44      C      0.961250000000     0.686080000000     0.068280000000     0.440496   
C45      C      0.552430000000     0.014000000000     0.338300000000     0.448268   
C46      C      0.523640000000     0.042080000000     0.192170000000     0.449125   
C47      C      0.478090000000     0.064420000000     0.286020000000     0.450285   
C48      C      0.594440000000     0.981750000000     0.243330000000     0.445553   
C49      C      0.383740000000     0.176210000000     0.019780000000     0.439504   
C50      C      0.351430000000     0.215750000000     0.163740000000     0.440212   
C51      C      0.407700000000     0.296820000000     0.071310000000     0.437308   
C52      C      0.324450000000     0.094490000000     0.109820000000     0.438161   
C53      C      0.604020000000     0.551260000000     0.079230000000     0.442295   
C54      C      0.531690000000     0.510760000000     0.435260000000     0.437237   
C55      C      0.510410000000     0.428940000000     0.028110000000     0.438529   
C56      C      0.629950000000     0.630010000000     0.487910000000     0.442354   
C57      C      0.241620000000     0.890940000000     0.248840000000     0.446343   
C58      C      0.208790000000     0.827650000000     0.103830000000     0.445804   
C59      C      0.159990000000     0.765480000000     0.200460000000     0.444487   
C60      C      0.290720000000     0.960100000000     0.151060000000     0.440557   
C61      C      0.043010000000     0.497890000000     0.192690000000     0.449347   
C62      C      0.076560000000     0.557820000000     0.338090000000     0.448121   
C63      C      0.115780000000     0.629070000000     0.241350000000     0.447682   
C64      C      0.013740000000     0.431200000000     0.288180000000     0.449188   
C65      C      0.852290000000     0.169810000000     0.277650000000     0.447997   
C66      C      0.877560000000     0.231740000000     0.422820000000     0.44868    
C67      C      0.909800000000     0.298680000000     0.326240000000     0.45178    
C68      C      0.815970000000     0.101910000000     0.374610000000     0.451569   
C69      C      0.755680000000     0.905260000000     0.511130000000     0.445884   
C70      C      0.716940000000     0.846020000000     0.365320000000     0.444427   
C71      C      0.676220000000     0.773230000000     0.462120000000     0.44354    
C72      C      0.789430000000     0.970880000000     0.414990000000     0.449116   
C73      C      0.921010000000     0.738440000000     0.769980000000     0.447262   
C74      C      0.856930000000     0.703030000000     0.914910000000     0.446698   
C75      C      0.790530000000     0.674890000000     0.816910000000     0.449903   
C76      C      0.986620000000     0.768020000000     0.866860000000     0.451598   
C77      C      0.247600000000     0.858020000000     0.852840000000     0.446963   
C78      C      0.186730000000     0.830070000000     0.998440000000     0.449008   
C79      C      0.118950000000     0.792530000000     0.902530000000     0.450617   
C80      C      0.316560000000     0.890810000000     0.949650000000     0.44866    
C81      C      0.574790000000     0.059020000000     0.941520000000     0.44759    
C82      C      0.513340000000     0.021610000000     0.586460000000     0.448822   
C83      C      0.448110000000     0.994440000000     0.990260000000     0.447955   
C84      C      0.645800000000     0.096530000000     0.538830000000     0.443603   
C85      C      0.203750000000     0.384490000000     0.750060000000     0.441497   
C86      C      0.239280000000     0.350900000000     0.605660000000     0.442754   
C87      C      0.320180000000     0.403140000000     0.695790000000     0.441717   
C88      C      0.117330000000     0.322830000000     0.661550000000     0.438228   
C89      C      0.909890000000     0.229720000000     0.527070000000     0.448097   
C90      C      0.849490000000     0.195790000000     0.672620000000     0.446346   
C91      C      0.784980000000     0.144520000000     0.576820000000     0.440654   
C92      C      0.979700000000     0.282780000000     0.623140000000     0.438899   
C93      C      0.587990000000     0.568080000000     0.683130000000     0.442009   
C94      C      0.534010000000     0.498500000000     0.826900000000     0.437579   
C95      C      0.458960000000     0.494420000000     0.733450000000     0.442053   
C96      C      0.658380000000     0.574960000000     0.775110000000     0.447727   
C97      C      0.192970000000     0.368800000000     0.857710000000     0.443081   
C98      C      0.260340000000     0.384780000000     0.001730000000     0.440947   
C99      C      0.277720000000     0.330590000000     0.907300000000     0.452427   
C100     C      0.180180000000     0.431900000000     0.950690000000     0.449088   
C101     C      0.362460000000     0.160160000000     0.913360000000     0.442697   
C102     C      0.377930000000     0.229600000000     0.769650000000     0.440846   
C103     C      0.310340000000     0.232870000000     0.862660000000     0.451082   
C104     C      0.432960000000     0.157230000000     0.822220000000     0.449744   
C105     C      0.031360000000     0.541250000000     0.941150000000     0.446193   
C106     C      0.063150000000     0.515790000000     0.587150000000     0.44846    
C107     C      0.084580000000     0.469980000000     0.992910000000     0.448888   
C108     C      0.999400000000     0.584440000000     0.536210000000     0.44327    
C109     C      0.733180000000     0.914310000000     0.615710000000     0.446449   
C110     C      0.758440000000     0.880600000000     0.761830000000     0.444419   
C111     C      0.795220000000     0.847140000000     0.664920000000     0.442236   
C112     C      0.702230000000     0.953390000000     0.711250000000     0.443392   
C113     C      0.913990000000     0.705600000000     0.665210000000     0.44685    
C114     C      0.877900000000     0.733760000000     0.520300000000     0.445137   
C115     C      0.832120000000     0.751690000000     0.618690000000     0.441117   
C116     C      0.961230000000     0.686070000000     0.568280000000     0.440672   
C117     C      0.552430000000     0.014000000000     0.838300000000     0.448288   
C118     C      0.523630000000     0.042070000000     0.692170000000     0.44917    
C119     C      0.478080000000     0.064410000000     0.786020000000     0.450182   
C120     C      0.594430000000     0.981740000000     0.743330000000     0.445526   
C121     C      0.383750000000     0.176210000000     0.519780000000     0.44065    
C122     C      0.351440000000     0.215750000000     0.663740000000     0.440284   
C123     C      0.407700000000     0.296820000000     0.571310000000     0.437545   
C124     C      0.324460000000     0.094490000000     0.609820000000     0.438215   
C125     C      0.604020000000     0.551260000000     0.579230000000     0.442321   
C126     C      0.531690000000     0.510760000000     0.935260000000     0.437118   
C127     C      0.510410000000     0.428940000000     0.528110000000     0.438631   
C128     C      0.629950000000     0.630010000000     0.987920000000     0.444082   
C129     C      0.241630000000     0.890940000000     0.748840000000     0.446506   
C130     C      0.208790000000     0.827650000000     0.603830000000     0.445779   
C131     C      0.160000000000     0.765480000000     0.700450000000     0.444532   
C132     C      0.290730000000     0.960100000000     0.651060000000     0.440578   
C133     C      0.043010000000     0.497890000000     0.692690000000     0.449329   
C134     C      0.076570000000     0.557830000000     0.838090000000     0.448151   
C135     C      0.115790000000     0.629070000000     0.741350000000     0.447579   
C136     C      0.013750000000     0.431200000000     0.788180000000     0.449387   
C137     C      0.852290000000     0.169810000000     0.777650000000     0.447987   
C138     C      0.877560000000     0.231730000000     0.922820000000     0.448834   
C139     C      0.909800000000     0.298680000000     0.826240000000     0.451606   
C140     C      0.815980000000     0.101910000000     0.874600000000     0.451485   
C141     C      0.755690000000     0.905270000000     0.011130000000     0.443033   
C142     C      0.716940000000     0.846020000000     0.865330000000     0.444552   
C143     C      0.676220000000     0.773230000000     0.962120000000     0.443596   
C144     C      0.789430000000     0.970880000000     0.914980000000     0.449125   
H1       H      0.747110000000     0.031350000000     0.392300000000     0.126096   
H2       H      0.859540000000     0.039930000000     0.395040000000     0.1203     
H3       H      0.909340000000     0.368520000000     0.308100000000     0.121256   
H4       H      0.013200000000     0.360520000000     0.304840000000     0.122986   
H5       H      0.188580000000     0.695640000000     0.225150000000     0.122537   
H6       H      0.084030000000     0.701710000000     0.218980000000     0.122828   
H7       H      0.703150000000     0.695000000000     0.467620000000     0.125214   
H8       H      0.603420000000     0.707610000000     0.481570000000     0.120888   
H9       H      0.365640000000     0.028220000000     0.134440000000     0.122446   
H10      H      0.256200000000     0.018920000000     0.114770000000     0.120986   
H11      H      0.505870000000     0.355500000000     0.041370000000     0.119265   
H12      H      0.403740000000     0.364090000000     0.049530000000     0.119922   
H13      H      0.799130000000     0.898190000000     0.315970000000     0.115965   
H14      H      0.675920000000     0.832540000000     0.311860000000     0.117633   
H15      H      0.686460000000     0.899130000000     0.065410000000     0.1193     
H16      H      0.805860000000     0.931520000000     0.060960000000     0.11687    
H17      H      0.757850000000     0.741760000000     0.139750000000     0.119925   
H18      H      0.865830000000     0.848690000000     0.148780000000     0.121774   
H19      H      0.702420000000     0.025030000000     0.227110000000     0.124166   
H20      H      0.598620000000     0.913360000000     0.228470000000     0.12217    
H21      H      0.115150000000     0.573000000000     0.392850000000     0.116706   
H22      H      0.992080000000     0.517370000000     0.386670000000     0.118582   
H23      H      0.115070000000     0.533500000000     0.135280000000     0.118669   
H24      H      0.991980000000     0.466810000000     0.144170000000     0.121619   
H25      H      0.036530000000     0.693800000000     0.051650000000     0.121706   
H26      H      0.929470000000     0.584790000000     0.050660000000     0.122966   
H27      H      0.435110000000     0.179490000000     0.474010000000     0.114713   
H28      H      0.316800000000     0.109300000000     0.460270000000     0.113875   
H29      H      0.420450000000     0.282250000000     0.222680000000     0.114924   
H30      H      0.301500000000     0.210630000000     0.211330000000     0.11434    
H31      H      0.402990000000     0.056380000000     0.299090000000     0.125858   
H32      H      0.508670000000     0.163990000000     0.313610000000     0.120671   
H33      H      0.181520000000     0.504580000000     0.460880000000     0.121004   
H34      H      0.079000000000     0.395780000000     0.478570000000     0.12438    
H35      H      0.346820000000     0.333390000000     0.386060000000     0.125454   
H36      H      0.236660000000     0.228540000000     0.377860000000     0.118642   
H37      H      0.486460000000     0.519890000000     0.389930000000     0.115541   
H38      H      0.533900000000     0.449010000000     0.373150000000     0.113467   
H39      H      0.602510000000     0.621730000000     0.135900000000     0.115298   
H40      H      0.650690000000     0.550790000000     0.127380000000     0.114287   
H41      H      0.855230000000     0.253860000000     0.475280000000     0.118774   
H42      H      0.935810000000     0.212050000000     0.474520000000     0.120044   
H43      H      0.876140000000     0.146140000000     0.226990000000     0.11968    
H44      H      0.814040000000     0.208190000000     0.222640000000     0.118205   
H45      H      0.212390000000     0.438560000000     0.295500000000     0.114453   
H46      H      0.144150000000     0.319570000000     0.311390000000     0.11535    
H47      H      0.240550000000     0.304710000000     0.057470000000     0.116429   
H48      H      0.308740000000     0.425650000000     0.050940000000     0.115732   
H49      H      0.046730000000     0.360130000000     0.137190000000     0.122103   
H50      H      0.042460000000     0.253710000000     0.159030000000     0.121288   
H51      H      0.392210000000     0.503510000000     0.220150000000     0.119088   
H52      H      0.384780000000     0.392790000000     0.213090000000     0.122236   
H53      H      0.531400000000     0.974660000000     0.392900000000     0.117711   
H54      H      0.588480000000     0.098090000000     0.387080000000     0.117182   
H55      H      0.539470000000     0.092940000000     0.143780000000     0.11934    
H56      H      0.483170000000     0.969720000000     0.134830000000     0.119803   
H57      H      0.711180000000     0.169510000000     0.056000000000     0.122321   
H58      H      0.722010000000     0.067340000000     0.058910000000     0.122053   
H59      H      0.268060000000     0.836540000000     0.299290000000     0.118058   
H60      H      0.221330000000     0.912900000000     0.302220000000     0.11852    
H61      H      0.158620000000     0.851170000000     0.048110000000     0.120368   
H62      H      0.222830000000     0.791590000000     0.054910000000     0.117583   
H63      H      0.377750000000     0.994080000000     0.472710000000     0.123323   
H64      H      0.386710000000     0.890890000000     0.467520000000     0.120763   
H65      H      0.892340000000     0.780510000000     0.469400000000     0.117245   
H66      H      0.832170000000     0.656210000000     0.466120000000     0.120299   
H67      H      0.946210000000     0.784380000000     0.218230000000     0.118883   
H68      H      0.897080000000     0.660810000000     0.217150000000     0.119407   
H69      H      0.721910000000     0.676990000000     0.299020000000     0.12608    
H70      H      0.730300000000     0.574060000000     0.286150000000     0.119964   
H71      H      0.047230000000     0.722900000000     0.385860000000     0.124934   
H72      H      0.057790000000     0.836160000000     0.384990000000     0.12196    
H73      H      0.747110000000     0.031340000000     0.892290000000     0.126108   
H74      H      0.859540000000     0.039930000000     0.895040000000     0.120388   
H75      H      0.909340000000     0.368520000000     0.808110000000     0.121288   
H76      H      0.013200000000     0.360530000000     0.804840000000     0.123034   
H77      H      0.188590000000     0.695640000000     0.725140000000     0.122504   
H78      H      0.084030000000     0.701710000000     0.718980000000     0.122782   
H79      H      0.703150000000     0.695000000000     0.967620000000     0.125412   
H80      H      0.603420000000     0.707610000000     0.981570000000     0.121253   
H81      H      0.365650000000     0.028220000000     0.634440000000     0.12247    
H82      H      0.256210000000     0.018920000000     0.614770000000     0.121096   
H83      H      0.505870000000     0.355500000000     0.541370000000     0.119432   
H84      H      0.403740000000     0.364090000000     0.549530000000     0.120072   
H85      H      0.799130000000     0.898180000000     0.815970000000     0.115967   
H86      H      0.675920000000     0.832540000000     0.811870000000     0.117659   
H87      H      0.686450000000     0.899120000000     0.565410000000     0.119554   
H88      H      0.805850000000     0.931510000000     0.560960000000     0.117164   
H89      H      0.757840000000     0.741750000000     0.639750000000     0.120005   
H90      H      0.865820000000     0.848680000000     0.648780000000     0.121851   
H91      H      0.702410000000     0.025030000000     0.727110000000     0.124161   
H92      H      0.598610000000     0.913350000000     0.728470000000     0.122196   
H93      H      0.115160000000     0.573000000000     0.892850000000     0.116768   
H94      H      0.992090000000     0.517370000000     0.886670000000     0.118659   
H95      H      0.115070000000     0.533500000000     0.635280000000     0.11874    
H96      H      0.991980000000     0.466800000000     0.644170000000     0.121634   
H97      H      0.036530000000     0.693790000000     0.551650000000     0.121839   
H98      H      0.929470000000     0.584790000000     0.550660000000     0.123168   
H99      H      0.435100000000     0.179490000000     0.974010000000     0.114989   
H100     H      0.316790000000     0.109300000000     0.960280000000     0.114178   
H101     H      0.420450000000     0.282240000000     0.722680000000     0.114974   
H102     H      0.301500000000     0.210620000000     0.711330000000     0.114375   
H103     H      0.402980000000     0.056370000000     0.799090000000     0.125861   
H104     H      0.508660000000     0.163980000000     0.813610000000     0.120734   
H105     H      0.181520000000     0.504580000000     0.960880000000     0.121169   
H106     H      0.079010000000     0.395790000000     0.978570000000     0.124738   
H107     H      0.346810000000     0.333390000000     0.886060000000     0.125576   
H108     H      0.236660000000     0.228540000000     0.877850000000     0.118718   
H109     H      0.486460000000     0.519900000000     0.889930000000     0.115592   
H110     H      0.533900000000     0.449010000000     0.873150000000     0.113503   
H111     H      0.602510000000     0.621730000000     0.635900000000     0.115369   
H112     H      0.650690000000     0.550790000000     0.627380000000     0.114336   
H113     H      0.855230000000     0.253850000000     0.975280000000     0.119169   
H114     H      0.935810000000     0.212040000000     0.974520000000     0.120272   
H115     H      0.876150000000     0.146140000000     0.726980000000     0.119677   
H116     H      0.814040000000     0.208190000000     0.722640000000     0.118223   
H117     H      0.212400000000     0.438560000000     0.795510000000     0.114517   
H118     H      0.144150000000     0.319580000000     0.811390000000     0.115389   
H119     H      0.240550000000     0.304710000000     0.557480000000     0.116668   
H120     H      0.308730000000     0.425660000000     0.550940000000     0.115999   
H121     H      0.046720000000     0.360140000000     0.637190000000     0.122161   
H122     H      0.042450000000     0.253720000000     0.659030000000     0.121355   
H123     H      0.392210000000     0.503520000000     0.720150000000     0.119107   
H124     H      0.384780000000     0.392800000000     0.713090000000     0.122238   
H125     H      0.531390000000     0.974650000000     0.892900000000     0.117783   
H126     H      0.588470000000     0.098080000000     0.887080000000     0.117245   
H127     H      0.539460000000     0.092930000000     0.643780000000     0.119399   
H128     H      0.483160000000     0.969710000000     0.634830000000     0.11983    
H129     H      0.711180000000     0.169510000000     0.556000000000     0.122519   
H130     H      0.722010000000     0.067350000000     0.558910000000     0.122198   
H131     H      0.268070000000     0.836540000000     0.799290000000     0.118037   
H132     H      0.221340000000     0.912900000000     0.802220000000     0.118581   
H133     H      0.158620000000     0.851170000000     0.548110000000     0.120544   
H134     H      0.222840000000     0.791590000000     0.554900000000     0.117958   
H135     H      0.377740000000     0.994080000000     0.972710000000     0.123473   
H136     H      0.386710000000     0.890890000000     0.967530000000     0.120946   
H137     H      0.892350000000     0.780520000000     0.969400000000     0.117463   
H138     H      0.832170000000     0.656220000000     0.966130000000     0.120683   
H139     H      0.946210000000     0.784380000000     0.718230000000     0.118907   
H140     H      0.897080000000     0.660810000000     0.717150000000     0.119456   
H141     H      0.721900000000     0.676990000000     0.799020000000     0.126085   
H142     H      0.730300000000     0.574060000000     0.786150000000     0.119958   
H143     H      0.047230000000     0.722910000000     0.885860000000     0.125058   
H144     H      0.057790000000     0.836160000000     0.884980000000     0.122108   
N1       N      0.789630000000     0.050250000000     0.389000000000    -0.181837   
N2       N      0.817410000000     0.022230000000     0.399920000000    -0.181022   
N3       N      0.933650000000     0.350470000000     0.312160000000    -0.182081   
N4       N      0.989280000000     0.379170000000     0.301760000000    -0.180808   
N5       N      0.146490000000     0.680970000000     0.227590000000    -0.180863   
N6       N      0.125620000000     0.714760000000     0.215460000000    -0.179676   
N7       N      0.663240000000     0.683030000000     0.476810000000    -0.179296   
N8       N      0.644360000000     0.720700000000     0.474760000000    -0.17942    
N9       N      0.323250000000     0.011700000000     0.136150000000    -0.177848   
N10      N      0.298490000000     0.040450000000     0.119910000000    -0.177744   
N11      N      0.484210000000     0.376710000000     0.042520000000    -0.1782     
N12      N      0.429720000000     0.348710000000     0.056410000000    -0.177322   
N13      N      0.761770000000     0.873040000000     0.301610000000    -0.179456   
N14      N      0.713800000000     0.843410000000     0.324850000000    -0.179227   
N15      N      0.726810000000     0.917990000000     0.075950000000    -0.179867   
N16      N      0.767910000000     0.923180000000     0.049450000000    -0.179817   
N17      N      0.799620000000     0.769240000000     0.135690000000    -0.178535   
N18      N      0.823270000000     0.823350000000     0.150260000000    -0.179572   
N19      N      0.678350000000     0.982570000000     0.223550000000    -0.179437   
N20      N      0.621890000000     0.955980000000     0.231680000000    -0.180131   
N21      N      0.078640000000     0.563800000000     0.378320000000    -0.180034   
N22      N      0.029610000000     0.542710000000     0.400750000000    -0.180389   
N23      N      0.074640000000     0.509310000000     0.125400000000    -0.181145   
N24      N      0.032610000000     0.483650000000     0.153730000000    -0.181718   
N25      N      0.994610000000     0.666870000000     0.055490000000    -0.177489   
N26      N      0.971820000000     0.610380000000     0.047530000000    -0.178977   
N27      N      0.395050000000     0.169250000000     0.481400000000    -0.177642   
N28      N      0.353950000000     0.143700000000     0.452210000000    -0.178253   
N29      N      0.383980000000     0.247250000000     0.231070000000    -0.177291   
N30      N      0.341480000000     0.222200000000     0.202650000000    -0.176933   
N31      N      0.445200000000     0.083770000000     0.298030000000    -0.18158    
N32      N      0.466320000000     0.137940000000     0.311220000000    -0.18123    
N33      N      0.157840000000     0.461910000000     0.463500000000    -0.181128   
N34      N      0.104830000000     0.438320000000     0.479450000000    -0.180716   
N35      N      0.305160000000     0.307130000000     0.391920000000    -0.181882   
N36      N      0.279340000000     0.252960000000     0.377610000000    -0.181126   
N37      N      0.514690000000     0.507200000000     0.396580000000    -0.176888   
N38      N      0.529250000000     0.482600000000     0.365960000000    -0.177133   
N39      N      0.602760000000     0.586320000000     0.144990000000    -0.177448   
N40      N      0.621340000000     0.560690000000     0.117880000000    -0.177473   
N41      N      0.883250000000     0.244400000000     0.462250000000    -0.180509   
N42      N      0.916280000000     0.231910000000     0.486880000000    -0.180274   
N43      N      0.850720000000     0.160420000000     0.237840000000    -0.18054    
N44      N      0.832650000000     0.186870000000     0.211270000000    -0.180596   
N45      N      0.200680000000     0.397900000000     0.288660000000    -0.178097   
N46      N      0.176960000000     0.358190000000     0.318840000000    -0.178828   
N47      N      0.250060000000     0.343790000000     0.067170000000    -0.177597   
N48      N      0.276250000000     0.388580000000     0.040540000000    -0.177839   
N49      N      0.031690000000     0.317880000000     0.136520000000    -0.177876   
N50      N      0.062790000000     0.295760000000     0.152770000000    -0.177479   
N51      N      0.407350000000     0.476340000000     0.219630000000    -0.179191   
N52      N      0.372700000000     0.421800000000     0.207620000000    -0.178873   
N53      N      0.555970000000     0.012230000000     0.378590000000    -0.180316   
N54      N      0.579320000000     0.061290000000     0.401190000000    -0.180058   
N55      N      0.517370000000     0.052210000000     0.153570000000    -0.18114    
N56      N      0.497630000000     0.009990000000     0.125120000000    -0.180912   
N57      N      0.697810000000     0.127740000000     0.052590000000    -0.179611   
N58      N      0.733830000000     0.108620000000     0.062860000000    -0.178414   
N59      N      0.258200000000     0.863870000000     0.313040000000    -0.180021   
N60      N      0.243120000000     0.895770000000     0.289210000000    -0.179691   
N61      N      0.174660000000     0.826950000000     0.037870000000    -0.181801   
N62      N      0.200600000000     0.809680000000     0.065450000000    -0.180675   
N63      N      0.396460000000     0.970210000000     0.475720000000    -0.181341   
N64      N      0.368320000000     0.914980000000     0.463990000000    -0.181297   
N65      N      0.870500000000     0.740780000000     0.481100000000    -0.1801     
N66      N      0.846600000000     0.695700000000     0.454720000000    -0.180422   
N67      N      0.934180000000     0.745860000000     0.230620000000    -0.1804     
N68      N      0.918140000000     0.700400000000     0.205130000000    -0.180231   
N69      N      0.739420000000     0.651980000000     0.301610000000    -0.181059   
N70      N      0.711010000000     0.597520000000     0.287430000000    -0.180227   
N71      N      0.066600000000     0.765450000000     0.389450000000    -0.181441   
N72      N      0.038610000000     0.793760000000     0.380560000000    -0.182168   
N73      N      0.789640000000     0.050240000000     0.889000000000    -0.181653   
N74      N      0.817410000000     0.022230000000     0.899910000000    -0.18097    
N75      N      0.933650000000     0.350470000000     0.812160000000    -0.18203    
N76      N      0.989280000000     0.379170000000     0.801760000000    -0.18088    
N77      N      0.146490000000     0.680970000000     0.727590000000    -0.180797   
N78      N      0.125630000000     0.714760000000     0.715460000000    -0.179603   
N79      N      0.663250000000     0.683040000000     0.976810000000    -0.179422   
N80      N      0.644360000000     0.720710000000     0.974760000000    -0.179364   
N81      N      0.323250000000     0.011700000000     0.636150000000    -0.177766   
N82      N      0.298500000000     0.040450000000     0.619910000000    -0.1777     
N83      N      0.484210000000     0.376710000000     0.542520000000    -0.17814    
N84      N      0.429720000000     0.348710000000     0.556410000000    -0.177312   
N85      N      0.761770000000     0.873030000000     0.801600000000    -0.179489   
N86      N      0.713800000000     0.843410000000     0.824850000000    -0.179203   
N87      N      0.726800000000     0.917980000000     0.575950000000    -0.179755   
N88      N      0.767900000000     0.923170000000     0.549460000000    -0.1801     
N89      N      0.799610000000     0.769230000000     0.635690000000    -0.178535   
N90      N      0.823260000000     0.823350000000     0.650260000000    -0.179605   
N91      N      0.678350000000     0.982560000000     0.723550000000    -0.179456   
N92      N      0.621880000000     0.955970000000     0.731680000000    -0.180136   
N93      N      0.078650000000     0.563800000000     0.878320000000    -0.180034   
N94      N      0.029620000000     0.542710000000     0.900740000000    -0.180277   
N95      N      0.074640000000     0.509300000000     0.625390000000    -0.18121    
N96      N      0.032610000000     0.483640000000     0.653730000000    -0.181706   
N97      N      0.994600000000     0.666860000000     0.555490000000    -0.17736    
N98      N      0.971810000000     0.610370000000     0.547540000000    -0.178963   
N99      N      0.395040000000     0.169240000000     0.981400000000    -0.17691    
N100     N      0.353940000000     0.143700000000     0.952210000000    -0.178194   
N101     N      0.383990000000     0.247250000000     0.731060000000    -0.177276   
N102     N      0.341480000000     0.222200000000     0.702640000000    -0.177005   
N103     N      0.445190000000     0.083760000000     0.798030000000    -0.181567   
N104     N      0.466310000000     0.137940000000     0.811220000000    -0.181234   
N105     N      0.157840000000     0.461920000000     0.963500000000    -0.181061   
N106     N      0.104840000000     0.438320000000     0.979460000000    -0.180818   
N107     N      0.305160000000     0.307130000000     0.891920000000    -0.181947   
N108     N      0.279340000000     0.252960000000     0.877610000000    -0.181114   
N109     N      0.514690000000     0.507210000000     0.896570000000    -0.176763   
N110     N      0.529250000000     0.482610000000     0.865960000000    -0.177084   
N111     N      0.602760000000     0.586320000000     0.644990000000    -0.177444   
N112     N      0.621340000000     0.560690000000     0.617880000000    -0.17744    
N113     N      0.883260000000     0.244390000000     0.962250000000    -0.180385   
N114     N      0.916280000000     0.231900000000     0.986880000000    -0.179512   
N115     N      0.850730000000     0.160420000000     0.737840000000    -0.180524   
N116     N      0.832660000000     0.186880000000     0.711270000000    -0.180657   
N117     N      0.200680000000     0.397910000000     0.788660000000    -0.178185   
N118     N      0.176960000000     0.358190000000     0.818840000000    -0.178859   
N119     N      0.250060000000     0.343790000000     0.567170000000    -0.177526   
N120     N      0.276250000000     0.388580000000     0.540540000000    -0.178179   
N121     N      0.031690000000     0.317890000000     0.636520000000    -0.177875   
N122     N      0.062790000000     0.295770000000     0.652780000000    -0.177506   
N123     N      0.407350000000     0.476350000000     0.719630000000    -0.17917    
N124     N      0.372700000000     0.421810000000     0.707620000000    -0.17891    
N125     N      0.555960000000     0.012220000000     0.878590000000    -0.180312   
N126     N      0.579310000000     0.061280000000     0.901190000000    -0.179973   
N127     N      0.517360000000     0.052210000000     0.653570000000    -0.181168   
N128     N      0.497620000000     0.009990000000     0.625120000000    -0.18087    
N129     N      0.697810000000     0.127750000000     0.552600000000    -0.179608   
N130     N      0.733830000000     0.108630000000     0.562860000000    -0.178325   
N131     N      0.258200000000     0.863870000000     0.813040000000    -0.179988   
N132     N      0.243120000000     0.895770000000     0.789210000000    -0.179762   
N133     N      0.174670000000     0.826950000000     0.537870000000    -0.181015   
N134     N      0.200610000000     0.809670000000     0.565450000000    -0.180625   
N135     N      0.396450000000     0.970210000000     0.975720000000    -0.181145   
N136     N      0.368320000000     0.914980000000     0.963990000000    -0.181238   
N137     N      0.870510000000     0.740790000000     0.981100000000    -0.179411   
N138     N      0.846600000000     0.695700000000     0.954720000000    -0.180358   
N139     N      0.934170000000     0.745860000000     0.730620000000    -0.180408   
N140     N      0.918140000000     0.700390000000     0.705130000000    -0.180242   
N141     N      0.739410000000     0.651980000000     0.801620000000    -0.181064   
N142     N      0.711000000000     0.597520000000     0.787430000000    -0.180261   
N143     N      0.066600000000     0.765450000000     0.889450000000    -0.181423   
N144     N      0.038610000000     0.793770000000     0.880560000000    -0.182205   
Ni1      Ni     0.886780000000     0.677700000000     0.341220000000     1.01583    
Ni2      Ni     0.890070000000     0.764060000000     0.343370000000     1.0283     
Ni3      Ni     0.218010000000     0.800610000000     0.426350000000     1.01541    
Ni4      Ni     0.217590000000     0.885170000000     0.425290000000     1.0284     
Ni5      Ni     0.547890000000     0.001530000000     0.513540000000     1.00298    
Ni6      Ni     0.545450000000     0.085010000000     0.015650000000     1.03277    
Ni7      Ni     0.211210000000     0.320910000000     0.186910000000     1.02424    
Ni8      Ni     0.227790000000     0.409860000000     0.168970000000     0.980151   
Ni9      Ni     0.892480000000     0.177890000000     0.101860000000     1.0107     
Ni10     Ni     0.871280000000     0.249830000000     0.098570000000     1.00427    
Ni11     Ni     0.557480000000     0.491690000000     0.245740000000     0.998395   
Ni12     Ni     0.559800000000     0.574820000000     0.263660000000     1.01351    
Ni13     Ni     0.267020000000     0.421970000000     0.421860000000     1.03136    
Ni14     Ni     0.187700000000     0.336340000000     0.437480000000     1.00256    
Ni15     Ni     0.410900000000     0.236720000000     0.350590000000     1.02907    
Ni16     Ni     0.331090000000     0.152830000000     0.332430000000     1.0016     
Ni17     Ni     0.088150000000     0.569400000000     0.013400000000     1.00218    
Ni18     Ni     0.000380000000     0.488310000000     0.016260000000     1.02909    
Ni19     Ni     0.790700000000     0.939830000000     0.189090000000     1.01559    
Ni20     Ni     0.703950000000     0.857520000000     0.188180000000     1.00536    
Ni21     Ni     0.933970000000     0.765150000000     0.093810000000     1.00487    
Ni22     Ni     0.859070000000     0.673420000000     0.091450000000     1.01205    
Ni23     Ni     0.577730000000     0.069770000000     0.265640000000     1.01144    
Ni24     Ni     0.498140000000     0.980730000000     0.263740000000     1.03263    
Ni25     Ni     0.322800000000     0.188220000000     0.082340000000     1.0092     
Ni26     Ni     0.411200000000     0.203880000000     0.100730000000     0.984332   
Ni27     Ni     0.532470000000     0.538200000000     0.016440000000     0.989374   
Ni28     Ni     0.604230000000     0.520940000000     0.998150000000     1.01028    
Ni29     Ni     0.188780000000     0.870800000000     0.173960000000     1.01146    
Ni30     Ni     0.263410000000     0.853660000000     0.177520000000     1.01003    
Ni31     Ni     0.020690000000     0.530790000000     0.265400000000     1.01108    
Ni32     Ni     0.104570000000     0.529170000000     0.264380000000     1.03649    
Ni33     Ni     0.821000000000     0.199530000000     0.349390000000     1.02501    
Ni34     Ni     0.906470000000     0.201070000000     0.351250000000     1.02631    
Ni35     Ni     0.693740000000     0.876250000000     0.439890000000     1.02801    
Ni36     Ni     0.774350000000     0.868700000000     0.437870000000     1.00514    
Ni37     Ni     0.886780000000     0.677700000000     0.841220000000     1.01585    
Ni38     Ni     0.890070000000     0.764060000000     0.843370000000     1.02836    
Ni39     Ni     0.218010000000     0.800610000000     0.926350000000     1.01546    
Ni40     Ni     0.217590000000     0.885170000000     0.925290000000     1.02855    
Ni41     Ni     0.547890000000     0.001530000000     0.013540000000     1.0006     
Ni42     Ni     0.545450000000     0.085010000000     0.515650000000     1.03515    
Ni43     Ni     0.211200000000     0.320920000000     0.686920000000     1.0242     
Ni44     Ni     0.227790000000     0.409870000000     0.668970000000     0.980362   
Ni45     Ni     0.892480000000     0.177900000000     0.601860000000     1.01092    
Ni46     Ni     0.871280000000     0.249840000000     0.598570000000     1.00451    
Ni47     Ni     0.557480000000     0.491700000000     0.745740000000     0.998256   
Ni48     Ni     0.559800000000     0.574820000000     0.763660000000     1.0136     
Ni49     Ni     0.267030000000     0.421970000000     0.921860000000     1.03118    
Ni50     Ni     0.187700000000     0.336350000000     0.937480000000     1.00275    
Ni51     Ni     0.410900000000     0.236710000000     0.850590000000     1.02909    
Ni52     Ni     0.331080000000     0.152830000000     0.832420000000     1.00168    
Ni53     Ni     0.088150000000     0.569390000000     0.513400000000     1.00458    
Ni54     Ni     0.000380000000     0.488300000000     0.516260000000     1.0298     
Ni55     Ni     0.790700000000     0.939830000000     0.689090000000     1.01553    
Ni56     Ni     0.703940000000     0.857510000000     0.688180000000     1.00541    
Ni57     Ni     0.933960000000     0.765140000000     0.593810000000     1.00482    
Ni58     Ni     0.859060000000     0.673410000000     0.591450000000     1.01226    
Ni59     Ni     0.577720000000     0.069770000000     0.765640000000     1.01142    
Ni60     Ni     0.498130000000     0.980730000000     0.763740000000     1.03274    
Ni61     Ni     0.322800000000     0.188220000000     0.582340000000     1.00962    
Ni62     Ni     0.411200000000     0.203880000000     0.600730000000     0.984469   
Ni63     Ni     0.532470000000     0.538200000000     0.516430000000     0.992207   
Ni64     Ni     0.604230000000     0.520940000000     0.498150000000     1.00633    
Ni65     Ni     0.188790000000     0.870800000000     0.673960000000     1.01151    
Ni66     Ni     0.263420000000     0.853660000000     0.677530000000     1.01013    
Ni67     Ni     0.020700000000     0.530800000000     0.765400000000     1.01118    
Ni68     Ni     0.104580000000     0.529170000000     0.764380000000     1.03655    
Ni69     Ni     0.821000000000     0.199530000000     0.849390000000     1.02493    
Ni70     Ni     0.906470000000     0.201070000000     0.851250000000     1.02635    
Ni71     Ni     0.693740000000     0.876250000000     0.939890000000     1.02812    
Ni72     Ni     0.774350000000     0.868700000000     0.937870000000     1.00504    
O1       O      0.912060000000     0.694140000000     0.287240000000    -0.448207   
O2       O      0.860510000000     0.666020000000     0.395160000000    -0.450824   
O3       O      0.813390000000     0.645860000000     0.321890000000    -0.447284   
O4       O      0.961020000000     0.716110000000     0.360500000000    -0.444151   
O5       O      0.963710000000     0.796590000000     0.360720000000    -0.45964    
O6       O      0.815660000000     0.726020000000     0.325570000000    -0.452109   
O7       O      0.867140000000     0.748190000000     0.398240000000    -0.446728   
O8       O      0.914650000000     0.774540000000     0.288780000000    -0.449601   
O9       O      0.240680000000     0.814760000000     0.371010000000    -0.444295   
O10      O      0.196560000000     0.794610000000     0.481920000000    -0.441051   
O11      O      0.143180000000     0.765420000000     0.409970000000    -0.451657   
O12      O      0.292240000000     0.839540000000     0.442540000000    -0.458388   
O13      O      0.292240000000     0.918660000000     0.444140000000    -0.443369   
O14      O      0.143640000000     0.844710000000     0.406960000000    -0.449664   
O15      O      0.191800000000     0.871200000000     0.478860000000    -0.458445   
O16      O      0.241510000000     0.894320000000     0.371240000000    -0.452453   
O17      O      0.571280000000     0.017550000000     0.459660000000    -0.45236    
O18      O      0.521480000000     0.987570000000     0.066840000000    -0.456921   
O19      O      0.473230000000     0.967160000000     0.494650000000    -0.43972    
O20      O      0.623550000000     0.044430000000     0.032850000000    -0.42818    
O21      O      0.619110000000     0.121220000000     0.032280000000    -0.463695   
O22      O      0.471510000000     0.045290000000     0.498740000000    -0.459616   
O23      O      0.522710000000     0.067200000000     0.070740000000    -0.443252   
O24      O      0.568340000000     0.095210000000     0.460350000000    -0.447509   
O25      O      0.199700000000     0.338060000000     0.241200000000    -0.433728   
O26      O      0.224220000000     0.311730000000     0.131210000000    -0.440623   
O27      O      0.287030000000     0.351710000000     0.197510000000    -0.454899   
O28      O      0.136480000000     0.293640000000     0.175410000000    -0.460247   
O29      O      0.149170000000     0.374750000000     0.155800000000    -0.41813    
O30      O      0.303680000000     0.436210000000     0.184250000000    -0.429191   
O31      O      0.243430000000     0.396520000000     0.115880000000    -0.43988    
O32      O      0.213480000000     0.420150000000     0.222970000000    -0.450897   
O33      O      0.915800000000     0.194200000000     0.047130000000    -0.447935   
O34      O      0.867710000000     0.166810000000     0.156340000000    -0.444697   
O35      O      0.818940000000     0.127900000000     0.084020000000    -0.439253   
O36      O      0.964140000000     0.231730000000     0.119370000000    -0.444246   
O37      O      0.946360000000     0.300150000000     0.115130000000    -0.433124   
O38      O      0.799110000000     0.195090000000     0.082020000000    -0.442305   
O39      O      0.848320000000     0.234350000000     0.153210000000    -0.450476   
O40      O      0.892980000000     0.259310000000     0.043830000000    -0.448845   
O41      O      0.579820000000     0.520630000000     0.192810000000    -0.437744   
O42      O      0.537700000000     0.468080000000     0.300050000000    -0.44616    
O43      O      0.481430000000     0.464340000000     0.231050000000    -0.433462   
O44      O      0.633130000000     0.525770000000     0.261540000000    -0.443824   
O45      O      0.634310000000     0.603050000000     0.277860000000    -0.451332   
O46      O      0.485250000000     0.542690000000     0.247980000000    -0.454044   
O47      O      0.538850000000     0.545020000000     0.317410000000    -0.430752   
O48      O      0.580980000000     0.598010000000     0.208850000000    -0.442221   
O49      O      0.238450000000     0.411590000000     0.367580000000    -0.434636   
O50      O      0.288410000000     0.424480000000     0.477300000000    -0.442615   
O51      O      0.302630000000     0.382720000000     0.408420000000    -0.464764   
O52      O      0.228310000000     0.457770000000     0.436250000000    -0.464764   
O53      O      0.154430000000     0.379240000000     0.453830000000    -0.435724   
O54      O      0.227850000000     0.301640000000     0.419100000000    -0.440257   
O55      O      0.216240000000     0.342440000000     0.490290000000    -0.442333   
O56      O      0.163550000000     0.333210000000     0.383920000000    -0.453837   
O57      O      0.402840000000     0.207330000000     0.403930000000    -0.437626   
O58      O      0.413650000000     0.259870000000     0.295870000000    -0.445259   
O59      O      0.362540000000     0.262530000000     0.364490000000    -0.455873   
O60      O      0.454580000000     0.205880000000     0.335900000000    -0.459073   
O61      O      0.380750000000     0.127180000000     0.318550000000    -0.442188   
O62      O      0.287500000000     0.184320000000     0.348250000000    -0.44832    
O63      O      0.338210000000     0.182210000000     0.279210000000    -0.435083   
O64      O      0.327920000000     0.129420000000     0.386810000000    -0.447204   
O65      O      0.074420000000     0.577080000000     0.459030000000    -0.451681   
O66      O      0.099410000000     0.556460000000     0.067350000000    -0.455972   
O67      O      0.115740000000     0.522230000000     0.496300000000    -0.440404   
O68      O      0.051680000000     0.609780000000     0.030630000000    -0.426152   
O69      O      0.970780000000     0.532750000000     0.031200000000    -0.462028   
O70      O      0.033730000000     0.446930000000     0.501130000000    -0.455321   
O71      O      0.016330000000     0.482490000000     0.071610000000    -0.442741   
O72      O      0.992560000000     0.501070000000     0.460430000000    -0.444585   
O73      O      0.778450000000     0.947760000000     0.133140000000    -0.439257   
O74      O      0.796260000000     0.923810000000     0.244570000000    -0.443767   
O75      O      0.823100000000     0.897960000000     0.173610000000    -0.458095   
O76      O      0.753770000000     0.978450000000     0.204620000000    -0.447475   
O77      O      0.673170000000     0.901190000000     0.206480000000    -0.440609   
O78      O      0.742760000000     0.820620000000     0.169130000000    -0.430322   
O79      O      0.716130000000     0.845890000000     0.242480000000    -0.447799   
O80      O      0.694980000000     0.873990000000     0.134580000000    -0.454708   
O81      O      0.944820000000     0.751780000000     0.148230000000    -0.445956   
O82      O      0.916960000000     0.773300000000     0.039560000000    -0.448485   
O83      O      0.882920000000     0.786180000000     0.112490000000    -0.444181   
O84      O      0.980730000000     0.737340000000     0.075330000000    -0.436925   
O85      O      0.910060000000     0.652190000000     0.073290000000    -0.446043   
O86      O      0.812490000000     0.700820000000     0.110340000000    -0.440883   
O87      O      0.847760000000     0.687190000000     0.037060000000    -0.443999   
O88      O      0.875940000000     0.665470000000     0.145730000000    -0.449865   
O89      O      0.586940000000     0.057330000000     0.319980000000    -0.453925   
O90      O      0.563520000000     0.079610000000     0.211780000000    -0.458286   
O91      O      0.530060000000     0.096580000000     0.282610000000    -0.442308   
O92      O      0.618560000000     0.034130000000     0.248430000000    -0.431424   
O93      O      0.543140000000     0.951840000000     0.248970000000    -0.463689   
O94      O      0.456130000000     0.013390000000     0.278550000000    -0.458016   
O95      O      0.491400000000     0.995170000000     0.208120000000    -0.442214   
O96      O      0.512150000000     0.974490000000     0.319600000000    -0.446112   
O97      O      0.338270000000     0.173940000000     0.028580000000    -0.433516   
O98      O      0.313480000000     0.202330000000     0.137520000000    -0.441709   
O99      O      0.355770000000     0.264940000000     0.070030000000    -0.44307    
O100     O      0.294940000000     0.113220000000     0.095550000000    -0.452434   
O101     O      0.376240000000     0.126340000000     0.114980000000    -0.424754   
O102     O      0.439040000000     0.279130000000     0.084330000000    -0.433173   
O103     O      0.397580000000     0.220620000000     0.153890000000    -0.434307   
O104     O      0.420210000000     0.187390000000     0.046650000000    -0.44723    
O105     O      0.562200000000     0.554930000000     0.069310000000    -0.438761   
O106     O      0.507110000000     0.522440000000     0.462340000000    -0.447079   
O107     O      0.489850000000     0.460690000000     0.031110000000    -0.425866   
O108     O      0.581120000000     0.613560000000     0.500800000000    -0.434686   
O109     O      0.648000000000     0.596650000000     0.484870000000    -0.448537   
O110     O      0.557920000000     0.446640000000     0.013030000000    -0.455002   
O111     O      0.573540000000     0.505920000000     0.444210000000    -0.428412   
O112     O      0.628450000000     0.537040000000     0.053370000000    -0.441138   
O113     O      0.204760000000     0.894830000000     0.228870000000    -0.444797   
O114     O      0.178670000000     0.845040000000     0.119510000000    -0.441815   
O115     O      0.141400000000     0.797460000000     0.192280000000    -0.445676   
O116     O      0.239610000000     0.942770000000     0.155800000000    -0.448265   
O117     O      0.310530000000     0.928820000000     0.159400000000    -0.433653   
O118     O      0.210980000000     0.781280000000     0.195430000000    -0.443866   
O119     O      0.248070000000     0.828580000000     0.123540000000    -0.453268   
O120     O      0.273180000000     0.876790000000     0.231800000000    -0.450279   
O121     O      0.008010000000     0.504660000000     0.212120000000    -0.459377   
O122     O      0.035450000000     0.554120000000     0.319360000000    -0.453315   
O123     O      0.063540000000     0.606290000000     0.246370000000    -0.43293    
O124     O      0.986400000000     0.456210000000     0.283920000000    -0.442024   
O125     O      0.064720000000     0.454890000000     0.280320000000    -0.461517   
O126     O      0.140890000000     0.603050000000     0.248660000000    -0.466559   
O127     O      0.113000000000     0.551090000000     0.319920000000    -0.446991   
O128     O      0.088500000000     0.507750000000     0.208830000000    -0.442259   
O129     O      0.815820000000     0.177980000000     0.294120000000    -0.444337   
O130     O      0.834040000000     0.223120000000     0.404330000000    -0.448071   
O131     O      0.858440000000     0.273600000000     0.332800000000    -0.460364   
O132     O      0.787960000000     0.125020000000     0.366370000000    -0.454448   
O133     O      0.868020000000     0.127220000000     0.370090000000    -0.449018   
O134     O      0.938330000000     0.275240000000     0.332190000000    -0.446738   
O135     O      0.914380000000     0.225690000000     0.405150000000    -0.451641   
O136     O      0.893310000000     0.175060000000     0.297540000000    -0.456474   
O137     O      0.712520000000     0.900450000000     0.494360000000    -0.444559   
O138     O      0.681190000000     0.851840000000     0.385130000000    -0.447949   
O139     O      0.653800000000     0.802600000000     0.457940000000    -0.456757   
O140     O      0.738080000000     0.949450000000     0.421610000000    -0.453279   
O141     O      0.814210000000     0.943900000000     0.421330000000    -0.447838   
O142     O      0.727520000000     0.793030000000     0.454540000000    -0.433714   
O143     O      0.758780000000     0.849040000000     0.382740000000    -0.445102   
O144     O      0.787150000000     0.892260000000     0.492440000000    -0.449231   
O145     O      0.912060000000     0.694140000000     0.787240000000    -0.448174   
O146     O      0.860500000000     0.666020000000     0.895160000000    -0.450768   
O147     O      0.813390000000     0.645870000000     0.821890000000    -0.447376   
O148     O      0.961020000000     0.716110000000     0.860500000000    -0.444125   
O149     O      0.963710000000     0.796590000000     0.860720000000    -0.459602   
O150     O      0.815660000000     0.726020000000     0.825570000000    -0.452141   
O151     O      0.867140000000     0.748190000000     0.898240000000    -0.446836   
O152     O      0.914650000000     0.774550000000     0.788780000000    -0.449491   
O153     O      0.240680000000     0.814760000000     0.871010000000    -0.444294   
O154     O      0.196550000000     0.794620000000     0.981930000000    -0.441039   
O155     O      0.143180000000     0.765420000000     0.909970000000    -0.451528   
O156     O      0.292240000000     0.839540000000     0.942540000000    -0.458199   
O157     O      0.292240000000     0.918670000000     0.944140000000    -0.443159   
O158     O      0.143640000000     0.844720000000     0.906960000000    -0.449492   
O159     O      0.191800000000     0.871200000000     0.978860000000    -0.458474   
O160     O      0.241510000000     0.894320000000     0.871240000000    -0.452416   
O161     O      0.571280000000     0.017550000000     0.959660000000    -0.451324   
O162     O      0.521480000000     0.987570000000     0.566840000000    -0.457115   
O163     O      0.473220000000     0.967160000000     0.994650000000    -0.438684   
O164     O      0.623550000000     0.044430000000     0.532850000000    -0.428305   
O165     O      0.619110000000     0.121220000000     0.532280000000    -0.463854   
O166     O      0.471510000000     0.045290000000     0.998740000000    -0.4585     
O167     O      0.522710000000     0.067200000000     0.570740000000    -0.443479   
O168     O      0.568340000000     0.095210000000     0.960340000000    -0.44643    
O169     O      0.199700000000     0.338070000000     0.741210000000    -0.433808   
O170     O      0.224210000000     0.311740000000     0.631210000000    -0.440533   
O171     O      0.287030000000     0.351720000000     0.697510000000    -0.454948   
O172     O      0.136480000000     0.293650000000     0.675410000000    -0.460282   
O173     O      0.149170000000     0.374760000000     0.655810000000    -0.418147   
O174     O      0.303680000000     0.436210000000     0.684250000000    -0.429218   
O175     O      0.243430000000     0.396520000000     0.615880000000    -0.439905   
O176     O      0.213480000000     0.420150000000     0.722970000000    -0.45106    
O177     O      0.915800000000     0.194210000000     0.547130000000    -0.447902   
O178     O      0.867710000000     0.166820000000     0.656340000000    -0.444831   
O179     O      0.818940000000     0.127910000000     0.584020000000    -0.439253   
O180     O      0.964140000000     0.231740000000     0.619370000000    -0.444252   
O181     O      0.946360000000     0.300150000000     0.615130000000    -0.433226   
O182     O      0.799110000000     0.195100000000     0.582030000000    -0.44225    
O183     O      0.848320000000     0.234350000000     0.653210000000    -0.450588   
O184     O      0.892980000000     0.259320000000     0.543830000000    -0.448815   
O185     O      0.579820000000     0.520630000000     0.692810000000    -0.437632   
O186     O      0.537700000000     0.468080000000     0.800050000000    -0.446105   
O187     O      0.481430000000     0.464340000000     0.731040000000    -0.433335   
O188     O      0.633130000000     0.525780000000     0.761540000000    -0.443864   
O189     O      0.634300000000     0.603050000000     0.777860000000    -0.451361   
O190     O      0.485250000000     0.542690000000     0.747980000000    -0.454092   
O191     O      0.538850000000     0.545020000000     0.817410000000    -0.430735   
O192     O      0.580980000000     0.598010000000     0.708850000000    -0.442263   
O193     O      0.238450000000     0.411590000000     0.867580000000    -0.434626   
O194     O      0.288420000000     0.424470000000     0.977300000000    -0.441016   
O195     O      0.302630000000     0.382720000000     0.908420000000    -0.464699   
O196     O      0.228310000000     0.457770000000     0.936250000000    -0.464522   
O197     O      0.154440000000     0.379240000000     0.953840000000    -0.435644   
O198     O      0.227850000000     0.301640000000     0.919090000000    -0.439986   
O199     O      0.216250000000     0.342440000000     0.990290000000    -0.440673   
O200     O      0.163560000000     0.333220000000     0.883930000000    -0.45391    
O201     O      0.402830000000     0.207320000000     0.903930000000    -0.437509   
O202     O      0.413640000000     0.259870000000     0.795870000000    -0.445238   
O203     O      0.362530000000     0.262520000000     0.864490000000    -0.455836   
O204     O      0.454580000000     0.205870000000     0.835900000000    -0.459175   
O205     O      0.380740000000     0.127170000000     0.818550000000    -0.442205   
O206     O      0.287500000000     0.184320000000     0.848250000000    -0.44836    
O207     O      0.338200000000     0.182210000000     0.779210000000    -0.4352     
O208     O      0.327910000000     0.129420000000     0.886810000000    -0.447119   
O209     O      0.074420000000     0.577080000000     0.959030000000    -0.450755   
O210     O      0.099410000000     0.556450000000     0.567350000000    -0.456252   
O211     O      0.115750000000     0.522240000000     0.996300000000    -0.43964    
O212     O      0.051670000000     0.609770000000     0.530630000000    -0.426279   
O213     O      0.970770000000     0.532750000000     0.531210000000    -0.461849   
O214     O      0.033740000000     0.446940000000     0.001130000000    -0.4566     
O215     O      0.016330000000     0.482480000000     0.571610000000    -0.442856   
O216     O      0.992570000000     0.501080000000     0.960430000000    -0.443707   
O217     O      0.778440000000     0.947760000000     0.633140000000    -0.439156   
O218     O      0.796260000000     0.923800000000     0.744570000000    -0.443787   
O219     O      0.823090000000     0.897950000000     0.673610000000    -0.458193   
O220     O      0.753760000000     0.978450000000     0.704620000000    -0.447417   
O221     O      0.673160000000     0.901180000000     0.706480000000    -0.440613   
O222     O      0.742760000000     0.820610000000     0.669130000000    -0.430362   
O223     O      0.716120000000     0.845880000000     0.742480000000    -0.447735   
O224     O      0.694970000000     0.873980000000     0.634580000000    -0.454627   
O225     O      0.944820000000     0.751780000000     0.648230000000    -0.445898   
O226     O      0.916960000000     0.773290000000     0.539550000000    -0.448379   
O227     O      0.882910000000     0.786170000000     0.612490000000    -0.444154   
O228     O      0.980730000000     0.737330000000     0.575330000000    -0.43676    
O229     O      0.910050000000     0.652190000000     0.573290000000    -0.446125   
O230     O      0.812480000000     0.700820000000     0.610340000000    -0.440892   
O231     O      0.847750000000     0.687180000000     0.537060000000    -0.443869   
O232     O      0.875940000000     0.665460000000     0.645730000000    -0.449839   
O233     O      0.586930000000     0.057320000000     0.819980000000    -0.453956   
O234     O      0.563520000000     0.079600000000     0.711780000000    -0.458315   
O235     O      0.530060000000     0.096580000000     0.782620000000    -0.442248   
O236     O      0.618550000000     0.034120000000     0.748430000000    -0.431354   
O237     O      0.543130000000     0.951830000000     0.748970000000    -0.463611   
O238     O      0.456130000000     0.013380000000     0.778550000000    -0.458127   
O239     O      0.491390000000     0.995170000000     0.708120000000    -0.442272   
O240     O      0.512140000000     0.974480000000     0.819600000000    -0.446008   
O241     O      0.338270000000     0.173940000000     0.528580000000    -0.433354   
O242     O      0.313480000000     0.202320000000     0.637510000000    -0.441755   
O243     O      0.355780000000     0.264940000000     0.570030000000    -0.443126   
O244     O      0.294940000000     0.113220000000     0.595550000000    -0.452298   
O245     O      0.376240000000     0.126340000000     0.614980000000    -0.424777   
O246     O      0.439040000000     0.279130000000     0.584330000000    -0.433176   
O247     O      0.397580000000     0.220620000000     0.653890000000    -0.434413   
O248     O      0.420210000000     0.187390000000     0.546650000000    -0.447279   
O249     O      0.562200000000     0.554920000000     0.569310000000    -0.438948   
O250     O      0.507110000000     0.522440000000     0.962340000000    -0.44591    
O251     O      0.489860000000     0.460690000000     0.531110000000    -0.425933   
O252     O      0.581120000000     0.613560000000     0.000800000000    -0.435958   
O253     O      0.648000000000     0.596660000000     0.984870000000    -0.449134   
O254     O      0.557920000000     0.446640000000     0.513030000000    -0.453792   
O255     O      0.573540000000     0.505920000000     0.944210000000    -0.428598   
O256     O      0.628450000000     0.537040000000     0.553370000000    -0.440093   
O257     O      0.204770000000     0.894820000000     0.728870000000    -0.444894   
O258     O      0.178670000000     0.845040000000     0.619510000000    -0.441746   
O259     O      0.141410000000     0.797460000000     0.692290000000    -0.445692   
O260     O      0.239620000000     0.942770000000     0.655800000000    -0.448226   
O261     O      0.310540000000     0.928820000000     0.659400000000    -0.433576   
O262     O      0.210990000000     0.781280000000     0.695430000000    -0.443923   
O263     O      0.248080000000     0.828590000000     0.623540000000    -0.453067   
O264     O      0.273190000000     0.876790000000     0.731800000000    -0.450414   
O265     O      0.008010000000     0.504660000000     0.712120000000    -0.459362   
O266     O      0.035460000000     0.554120000000     0.819360000000    -0.453359   
O267     O      0.063540000000     0.606280000000     0.746370000000    -0.432971   
O268     O      0.986410000000     0.456210000000     0.783930000000    -0.441985   
O269     O      0.064720000000     0.454890000000     0.780320000000    -0.461647   
O270     O      0.140900000000     0.603050000000     0.748660000000    -0.46653    
O271     O      0.113010000000     0.551090000000     0.819920000000    -0.44694    
O272     O      0.088500000000     0.507750000000     0.708830000000    -0.442253   
O273     O      0.815830000000     0.177980000000     0.794120000000    -0.444391   
O274     O      0.834040000000     0.223120000000     0.904340000000    -0.447895   
O275     O      0.858440000000     0.273600000000     0.832800000000    -0.460274   
O276     O      0.787960000000     0.125020000000     0.866360000000    -0.454313   
O277     O      0.868020000000     0.127220000000     0.870090000000    -0.449018   
O278     O      0.938340000000     0.275240000000     0.832190000000    -0.446608   
O279     O      0.914380000000     0.225690000000     0.905150000000    -0.451642   
O280     O      0.893320000000     0.175060000000     0.797540000000    -0.456393   
O281     O      0.712530000000     0.900450000000     0.994360000000    -0.442922   
O282     O      0.681190000000     0.851840000000     0.885130000000    -0.448012   
O283     O      0.653800000000     0.802610000000     0.957940000000    -0.456556   
O284     O      0.738080000000     0.949450000000     0.921610000000    -0.453151   
O285     O      0.814210000000     0.943900000000     0.921330000000    -0.447682   
O286     O      0.727520000000     0.793030000000     0.954540000000    -0.433544   
O287     O      0.758770000000     0.849030000000     0.882740000000    -0.44517    
O288     O      0.787150000000     0.892260000000     0.992440000000    -0.447594   


