data_structure

_audit_creation_method RASPA-1.0
_audit_creation_date 2023-6-5
_audit_author_name 'Poobodin Mano'

_cell_length_a    28.8338
_cell_length_b    31.6416
_cell_length_c    34.6309
_cell_angle_alpha 89.981
_cell_angle_beta  90.0191
_cell_angle_gamma 119.983
_cell_volume      27367.1

_symmetry_cell_setting          triclinic
_symmetry_space_group_name_Hall 'P 1'
_symmetry_space_group_name_H-M  'P 1'
_symmetry_Int_Tables_number     1

_symmetry_equiv_pos_as_xyz 'x,y,z'

loop_
_atom_site_label
_atom_site_type_symbol
_atom_site_fract_x
_atom_site_fract_y
_atom_site_fract_z
_atom_site_charge
C1       C      0.933200000000     0.667830000000     0.341660000000     0.446899   
C2       C      0.876380000000     0.731840000000     0.456700000000     0.447572   
C3       C      0.818560000000     0.677820000000     0.362200000000     0.450204   
C4       C      0.988020000000     0.718720000000     0.436170000000     0.452533   
C5       C      0.274300000000     0.841800000000     0.516130000000     0.447921   
C6       C      0.252010000000     0.930790000000     0.401550000000     0.446498   
C7       C      0.361290000000     0.960410000000     0.471350000000     0.445708   
C8       C      0.173500000000     0.818120000000     0.447990000000     0.451664   
C9       C      0.646200000000     0.090720000000     0.487550000000     0.444327   
C10      C      0.549890000000     0.029330000000     0.116410000000     0.446013   
C11      C      0.518130000000     0.067430000000     0.525210000000     0.44657    
C12      C      0.672070000000     0.050260000000     0.079540000000     0.447305   
C13      C      0.210750000000     0.288620000000     0.293590000000     0.450698   
C14      C      0.301800000000     0.353170000000     0.163630000000     0.447972   
C15      C      0.344360000000     0.341750000000     0.258180000000     0.451071   
C16      C      0.164890000000     0.297110000000     0.197130000000     0.447866   
C17      C      0.908460000000     0.199810000000     0.059200000000     0.450256   
C18      C      0.957400000000     0.169630000000     0.193010000000     0.449162   
C19      C      0.843290000000     0.111080000000     0.129520000000     0.44942    
C20      C      0.028330000000     0.261550000000     0.121690000000     0.446895   
C21      C      0.568030000000     0.583200000000     0.226750000000     0.448437   
C22      C      0.624430000000     0.521860000000     0.343910000000     0.44517    
C23      C      0.520950000000     0.466990000000     0.273760000000     0.449812   
C24      C      0.672360000000     0.639680000000     0.299280000000     0.449921   
C25      C      0.348500000000     0.372030000000     0.535240000000     0.450003   
C26      C      0.260420000000     0.349920000000     0.403400000000     0.447615   
C27      C      0.246760000000     0.394180000000     0.496000000000     0.446291   
C28      C      0.364150000000     0.328860000000     0.443840000000     0.448323   
C29      C      0.411880000000     0.158850000000     0.445290000000     0.450606   
C30      C      0.492960000000     0.232320000000     0.314410000000     0.446571   
C31      C      0.473720000000     0.278760000000     0.404400000000     0.449187   
C32      C      0.427650000000     0.110380000000     0.355480000000     0.447722   
C33      C      0.165810000000     0.600380000000     0.475130000000     0.450243   
C34      C      0.118180000000     0.512590000000     0.104390000000     0.453914   
C35      C      0.165540000000     0.495660000000     0.513860000000     0.445779   
C36      C      0.113320000000     0.616900000000     0.066800000000     0.442447   
C37      C      0.820410000000     0.900200000000     0.187730000000     0.444789   
C38      C      0.760480000000     0.819900000000     0.319960000000     0.446904   
C39      C      0.806290000000     0.789010000000     0.230410000000     0.440035   
C40      C      0.772480000000     0.924800000000     0.276480000000     0.447203   
C41      C      0.938040000000     0.657170000000     0.206780000000     0.445555   
C42      C      0.883680000000     0.692140000000     0.075480000000     0.443843   
C43      C      0.830910000000     0.674460000000     0.171910000000     0.443487   
C44      C      0.994780000000     0.678070000000     0.111090000000     0.44015    
C45      C      0.650440000000     0.074660000000     0.353120000000     0.446577   
C46      C      0.540920000000     0.980360000000     0.235450000000     0.444806   
C47      C      0.528640000000     0.054410000000     0.308530000000     0.44863    
C48      C      0.667130000000     0.003520000000     0.279810000000     0.445417   
C49      C      0.368480000000     0.175510000000     0.053980000000     0.451023   
C50      C      0.478420000000     0.230210000000     0.177950000000     0.447435   
C51      C      0.487040000000     0.286200000000     0.085500000000     0.450563   
C52      C      0.363500000000     0.122170000000     0.147660000000     0.451331   
C53      C      0.613370000000     0.576300000000     0.109170000000     0.445904   
C54      C      0.641660000000     0.518010000000     0.478770000000     0.448661   
C55      C      0.593160000000     0.461190000000     0.071790000000     0.450079   
C56      C      0.661580000000     0.630120000000     0.515020000000     0.452763   
C57      C      0.272060000000     0.905990000000     0.281170000000     0.447247   
C58      C      0.284740000000     0.844870000000     0.147670000000     0.449119   
C59      C      0.260190000000     0.793020000000     0.243020000000     0.447215   
C60      C      0.289400000000     0.952350000000     0.185200000000     0.450422   
C61      C      0.062840000000     0.499400000000     0.213100000000     0.452545   
C62      C      0.145440000000     0.558700000000     0.345970000000     0.448056   
C63      C      0.167250000000     0.615810000000     0.255040000000     0.445764   
C64      C      0.046100000000     0.442770000000     0.304390000000     0.448464   
C65      C      0.950940000000     0.197620000000     0.325990000000     0.447399   
C66      C      0.864540000000     0.221000000000     0.445890000000     0.451279   
C67      C      0.958790000000     0.303090000000     0.377280000000     0.447454   
C68      C      0.856390000000     0.118260000000     0.394830000000     0.444015   
C69      C      0.806350000000     0.915090000000     0.550210000000     0.44607    
C70      C      0.706670000000     0.838560000000     0.424830000000     0.446273   
C71      C      0.730790000000     0.795850000000     0.513410000000     0.451519   
C72      C      0.783310000000     0.964340000000     0.461500000000     0.446738   
C73      C      0.842580000000     0.040480000000     0.424390000000     0.0794713  
C74      C      0.973770000000     0.379860000000     0.345810000000     0.0810161  
C75      C      0.198320000000     0.704800000000     0.256130000000     0.0795687  
C76      C      0.729660000000     0.717540000000     0.509070000000     0.0811441  
C77      C      0.344540000000     0.039920000000     0.167860000000     0.0834644  
C78      C      0.521020000000     0.375100000000     0.079620000000     0.0813307  
C79      C      0.689970000000     0.779710000000     0.370760000000     0.0831432  
C80      C      0.802560000000     0.920410000000     0.121460000000     0.0814025  
C81      C      0.778650000000     0.715160000000     0.190450000000     0.0834469  
C82      C      0.708170000000     0.952570000000     0.293680000000     0.0813071  
C83      C      0.148240000000     0.602480000000     0.405240000000     0.0825407  
C84      C      0.054320000000     0.454500000000     0.152500000000     0.0885631  
C85      C      0.043110000000     0.638570000000     0.081500000000     0.0784373  
C86      C      0.337880000000     0.124540000000     0.493990000000     0.0872455  
C87      C      0.487540000000     0.255810000000     0.246370000000     0.0814709  
C88      C      0.450090000000     0.045110000000     0.344690000000     0.0866249  
C89      C      0.226960000000     0.461630000000     0.507260000000     0.0806179  
C90      C      0.448810000000     0.342690000000     0.413810000000     0.0863294  
C91      C      0.611150000000     0.492170000000     0.411820000000     0.0812395  
C92      C      0.552860000000     0.583100000000     0.155680000000     0.0859458  
C93      C      0.865230000000     0.233190000000     0.516870000000     0.0882973  
C94      C      0.935020000000     0.159620000000     0.262220000000     0.0809307  
C95      C      0.183890000000     0.303500000000     0.358090000000     0.0863407  
C96      C      0.345180000000     0.346590000000     0.103550000000     0.0832771  
C97      C      0.102920000000     0.317950000000     0.162290000000     0.0768862  
C98      C      0.430250000000     0.400700000000     0.289480000000     0.0833494  
C99      C      0.672260000000     0.075800000000     0.422630000000     0.079926   
C100     C      0.522020000000     0.964770000000     0.164630000000     0.0858422  
C101     C      0.744660000000     0.074150000000     0.127930000000     0.0803704  
C102     C      0.223920000000     0.922660000000     0.333030000000     0.086377   
C103     C      0.248750000000     0.809250000000     0.083060000000     0.0841549  
C104     C      0.421090000000     0.031100000000     0.511300000000     0.0859003  
C105     C      0.886160000000     0.750010000000     0.526710000000     0.0834495  
C106     C      0.970400000000     0.678380000000     0.275020000000     0.0793924  
C107     C      0.768710000000     0.694070000000     0.310910000000     0.0835581  
C108     C      0.077520000000     0.778310000000     0.461510000000     0.0864744  
C109     C      0.933200000000     0.667830000000     0.841660000000     0.446905   
C110     C      0.876380000000     0.731840000000     0.956700000000     0.44758    
C111     C      0.818550000000     0.677820000000     0.862200000000     0.450176   
C112     C      0.988020000000     0.718720000000     0.936170000000     0.452549   
C113     C      0.274300000000     0.841800000000     0.016130000000     0.447892   
C114     C      0.252010000000     0.930790000000     0.901550000000     0.446468   
C115     C      0.361290000000     0.960410000000     0.971350000000     0.445734   
C116     C      0.173500000000     0.818120000000     0.947990000000     0.451724   
C117     C      0.646210000000     0.090720000000     0.987550000000     0.444374   
C118     C      0.549890000000     0.029330000000     0.616410000000     0.446007   
C119     C      0.518130000000     0.067430000000     0.025210000000     0.446559   
C120     C      0.672070000000     0.050260000000     0.579540000000     0.447119   
C121     C      0.210750000000     0.288620000000     0.793590000000     0.450728   
C122     C      0.301800000000     0.353170000000     0.663630000000     0.44796    
C123     C      0.344360000000     0.341750000000     0.758180000000     0.451091   
C124     C      0.164890000000     0.297110000000     0.697130000000     0.447952   
C125     C      0.908460000000     0.199810000000     0.559200000000     0.450346   
C126     C      0.957400000000     0.169630000000     0.693010000000     0.448964   
C127     C      0.843290000000     0.111080000000     0.629520000000     0.449444   
C128     C      0.028330000000     0.261550000000     0.621690000000     0.446923   
C129     C      0.568030000000     0.583200000000     0.726760000000     0.448569   
C130     C      0.624430000000     0.521860000000     0.843910000000     0.444818   
C131     C      0.520950000000     0.466990000000     0.773760000000     0.449701   
C132     C      0.672360000000     0.639680000000     0.799280000000     0.449999   
C133     C      0.348500000000     0.372030000000     0.035240000000     0.449999   
C134     C      0.260420000000     0.349930000000     0.903400000000     0.447606   
C135     C      0.246760000000     0.394180000000     0.996000000000     0.446196   
C136     C      0.364150000000     0.328860000000     0.943840000000     0.448322   
C137     C      0.411880000000     0.158850000000     0.945290000000     0.450729   
C138     C      0.492960000000     0.232320000000     0.814410000000     0.446599   
C139     C      0.473720000000     0.278760000000     0.904400000000     0.449111   
C140     C      0.427650000000     0.110380000000     0.855480000000     0.447714   
C141     C      0.165810000000     0.600380000000     0.975130000000     0.450248   
C142     C      0.118180000000     0.512590000000     0.604390000000     0.453963   
C143     C      0.165540000000     0.495660000000     0.013860000000     0.445743   
C144     C      0.113320000000     0.616900000000     0.566800000000     0.442542   
C145     C      0.820410000000     0.900200000000     0.687740000000     0.444844   
C146     C      0.760470000000     0.819900000000     0.819960000000     0.446904   
C147     C      0.806290000000     0.789010000000     0.730410000000     0.439942   
C148     C      0.772480000000     0.924800000000     0.776480000000     0.447268   
C149     C      0.938040000000     0.657170000000     0.706780000000     0.445527   
C150     C      0.883680000000     0.692140000000     0.575480000000     0.443836   
C151     C      0.830910000000     0.674460000000     0.671910000000     0.443273   
C152     C      0.994780000000     0.678070000000     0.611090000000     0.440139   
C153     C      0.650440000000     0.074660000000     0.853120000000     0.446577   
C154     C      0.540920000000     0.980360000000     0.735450000000     0.444754   
C155     C      0.528630000000     0.054410000000     0.808540000000     0.448481   
C156     C      0.667130000000     0.003520000000     0.779810000000     0.445556   
C157     C      0.368480000000     0.175510000000     0.553980000000     0.451026   
C158     C      0.478430000000     0.230210000000     0.677950000000     0.447373   
C159     C      0.487040000000     0.286200000000     0.585510000000     0.450588   
C160     C      0.363500000000     0.122170000000     0.647660000000     0.451331   
C161     C      0.613370000000     0.576300000000     0.609170000000     0.445931   
C162     C      0.641660000000     0.518010000000     0.978770000000     0.448544   
C163     C      0.593160000000     0.461190000000     0.571780000000     0.450277   
C164     C      0.661580000000     0.630120000000     0.015020000000     0.452711   
C165     C      0.272060000000     0.905990000000     0.781170000000     0.447248   
C166     C      0.284740000000     0.844870000000     0.647670000000     0.449107   
C167     C      0.260190000000     0.793020000000     0.743020000000     0.447223   
C168     C      0.289400000000     0.952360000000     0.685200000000     0.450428   
C169     C      0.062840000000     0.499400000000     0.713100000000     0.452603   
C170     C      0.145440000000     0.558700000000     0.845970000000     0.448072   
C171     C      0.167250000000     0.615810000000     0.755040000000     0.445785   
C172     C      0.046100000000     0.442770000000     0.804390000000     0.448417   
C173     C      0.950940000000     0.197620000000     0.825990000000     0.447392   
C174     C      0.864540000000     0.221010000000     0.945890000000     0.451155   
C175     C      0.958780000000     0.303090000000     0.877290000000     0.447477   
C176     C      0.856390000000     0.118260000000     0.894830000000     0.444054   
C177     C      0.806350000000     0.915090000000     0.050210000000     0.446072   
C178     C      0.706670000000     0.838560000000     0.924830000000     0.446265   
C179     C      0.730790000000     0.795850000000     0.013410000000     0.451467   
C180     C      0.783300000000     0.964330000000     0.961500000000     0.446777   
C181     C      0.842580000000     0.040480000000     0.924390000000     0.0794689  
C182     C      0.973770000000     0.379860000000     0.845810000000     0.0810137  
C183     C      0.198330000000     0.704800000000     0.756130000000     0.0796338  
C184     C      0.729660000000     0.717540000000     0.009070000000     0.0810694  
C185     C      0.344540000000     0.039920000000     0.667860000000     0.0834747  
C186     C      0.521020000000     0.375100000000     0.579620000000     0.0813194  
C187     C      0.689970000000     0.779700000000     0.870760000000     0.0830812  
C188     C      0.802560000000     0.920410000000     0.621470000000     0.0813872  
C189     C      0.778650000000     0.715160000000     0.690450000000     0.0834554  
C190     C      0.708170000000     0.952570000000     0.793680000000     0.0813146  
C191     C      0.148240000000     0.602480000000     0.905230000000     0.082507   
C192     C      0.054320000000     0.454500000000     0.652500000000     0.088564   
C193     C      0.043110000000     0.638570000000     0.581500000000     0.0784445  
C194     C      0.337880000000     0.124540000000     0.993990000000     0.0873194  
C195     C      0.487540000000     0.255800000000     0.746370000000     0.0815145  
C196     C      0.450090000000     0.045110000000     0.844690000000     0.0867047  
C197     C      0.226960000000     0.461630000000     0.007260000000     0.0806107  
C198     C      0.448810000000     0.342690000000     0.913810000000     0.08632    
C199     C      0.611150000000     0.492170000000     0.911820000000     0.0811998  
C200     C      0.552860000000     0.583100000000     0.655680000000     0.0859432  
C201     C      0.865220000000     0.233190000000     0.016880000000     0.0882685  
C202     C      0.935010000000     0.159630000000     0.762220000000     0.0808088  
C203     C      0.183890000000     0.303500000000     0.858090000000     0.0863591  
C204     C      0.345180000000     0.346590000000     0.603550000000     0.0832753  
C205     C      0.102920000000     0.317950000000     0.662290000000     0.0768641  
C206     C      0.430250000000     0.400700000000     0.789490000000     0.0832814  
C207     C      0.672260000000     0.075800000000     0.922630000000     0.0799272  
C208     C      0.522020000000     0.964770000000     0.664630000000     0.0858097  
C209     C      0.744660000000     0.074150000000     0.627920000000     0.0804298  
C210     C      0.223920000000     0.922660000000     0.833030000000     0.0863587  
C211     C      0.248750000000     0.809250000000     0.583060000000     0.0841452  
C212     C      0.421090000000     0.031100000000     0.011300000000     0.0858728  
C213     C      0.886160000000     0.750010000000     0.026710000000     0.0834098  
C214     C      0.970400000000     0.678380000000     0.775020000000     0.0793876  
C215     C      0.768710000000     0.694070000000     0.810910000000     0.083607   
C216     C      0.077520000000     0.778310000000     0.961510000000     0.0864785  
H1       H      0.771740000000     0.023510000000     0.457070000000     0.111714   
H2       H      0.792090000000     0.049720000000     0.383620000000     0.10871    
H3       H      0.877340000000     0.064460000000     0.442980000000     0.0351554  
H4       H      0.853580000000     0.017570000000     0.406610000000     0.0327112  
H5       H      0.028450000000     0.371450000000     0.309240000000     0.114207   
H6       H      0.019490000000     0.372370000000     0.391550000000     0.110596   
H7       H      0.974130000000     0.411680000000     0.359740000000     0.0299038  
H8       H      0.934210000000     0.356790000000     0.331880000000     0.0350769  
H9       H      0.239520000000     0.669120000000     0.233010000000     0.110427   
H10      H      0.284170000000     0.746710000000     0.266400000000     0.107198   
H11      H      0.170440000000     0.707800000000     0.235620000000     0.0390578  
H12      H      0.180330000000     0.699280000000     0.285400000000     0.0311441  
H13      H      0.652720000000     0.679540000000     0.481430000000     0.110306   
H14      H      0.684580000000     0.736170000000     0.547750000000     0.111762   
H15      H      0.753340000000     0.708790000000     0.529560000000     0.037415   
H16      H      0.753860000000     0.733810000000     0.482550000000     0.0325957  
H17      H      0.300090000000     0.076220000000     0.182650000000     0.108851   
H18      H      0.259800000000     0.992610000000     0.159230000000     0.110125   
H19      H      0.367320000000     0.040050000000     0.141910000000     0.0366486  
H20      H      0.369640000000     0.044360000000     0.193610000000     0.0331984  
H21      H      0.553770000000     0.333540000000     0.053680000000     0.111197   
H22      H      0.603250000000     0.408020000000     0.098870000000     0.11026    
H23      H      0.500770000000     0.382610000000     0.055450000000     0.0357078  
H24      H      0.497730000000     0.370890000000     0.106340000000     0.0343805  
H25      H      0.775530000000     0.810980000000     0.376670000000     0.121517   
H26      H      0.639280000000     0.806980000000     0.390390000000     0.105074   
H27      H      0.660930000000     0.763840000000     0.346540000000     0.0282188  
H28      H      0.684250000000     0.749320000000     0.389980000000     0.0193109  
H29      H      0.872260000000     0.939290000000     0.085710000000     0.108547   
H30      H      0.877950000000     0.952090000000     0.151960000000     0.108083   
H31      H      0.789970000000     0.948220000000     0.124210000000     0.0270669  
H32      H      0.765480000000     0.884020000000     0.121510000000     0.0387702  
H33      H      0.852080000000     0.755560000000     0.223900000000     0.121231   
H34      H      0.754040000000     0.638880000000     0.194000000000     0.108287   
H35      H      0.736370000000     0.702230000000     0.198760000000     0.0306995  
H36      H      0.784870000000     0.731890000000     0.161290000000     0.0294052  
H37      H      0.739040000000     0.016000000000     0.256500000000     0.112577   
H38      H      0.793320000000     0.989660000000     0.304790000000     0.107916   
H39      H      0.697630000000     0.952230000000     0.324620000000     0.0288872  
H40      H      0.677130000000     0.917520000000     0.280890000000     0.0390944  
H41      H      0.220420000000     0.650200000000     0.436270000000     0.108209   
H42      H      0.202510000000     0.576040000000     0.388880000000     0.111114   
H43      H      0.105350000000     0.577380000000     0.412260000000     0.0412227  
H44      H      0.150570000000     0.633640000000     0.388730000000     0.0271155  
H45      H      0.140390000000     0.496240000000     0.156390000000     0.121102   
H46      H      0.003670000000     0.482530000000     0.171950000000     0.10943    
H47      H      0.024970000000     0.438510000000     0.128470000000     0.0287379  
H48      H      0.055520000000     0.424610000000     0.168550000000     0.0260969  
H49      H      0.074870000000     0.714740000000     0.096100000000     0.107612   
H50      H      0.127930000000     0.679000000000     0.096700000000     0.108011   
H51      H      0.016960000000     0.605180000000     0.098560000000     0.0371253  
H52      H      0.027650000000     0.630960000000     0.051400000000     0.0330946  
H53      H      0.308980000000     0.170180000000     0.517400000000     0.10787    
H54      H      0.416990000000     0.133860000000     0.499030000000     0.118077   
H55      H      0.322190000000     0.089120000000     0.509330000000     0.0214307  
H56      H      0.310610000000     0.119450000000     0.469510000000     0.0279559  
H57      H      0.557860000000     0.268570000000     0.277900000000     0.107862   
H58      H      0.538600000000     0.236190000000     0.213890000000     0.109854   
H59      H      0.443390000000     0.232760000000     0.249780000000     0.0405843  
H60      H      0.496720000000     0.294090000000     0.242500000000     0.025933   
H61      H      0.498490000000     0.101190000000     0.302830000000     0.11843    
H62      H      0.376050000000     0.043130000000     0.330800000000     0.108317   
H63      H      0.427420000000     0.005240000000     0.338720000000     0.028918   
H64      H      0.467820000000     0.050540000000     0.374060000000     0.0351841  
H65      H      0.146730000000     0.431940000000     0.485170000000     0.111227   
H66      H      0.179570000000     0.385980000000     0.524120000000     0.109599   
H67      H      0.255200000000     0.480860000000     0.483160000000     0.0344813  
H68      H      0.246050000000     0.481400000000     0.534440000000     0.0328471  
H69      H      0.520340000000     0.343560000000     0.433990000000     0.107539   
H70      H      0.383280000000     0.274680000000     0.436760000000     0.123007   
H71      H      0.468340000000     0.380460000000     0.425540000000     0.0285632  
H72      H      0.441860000000     0.344660000000     0.382440000000     0.0292186  
H73      H      0.687670000000     0.509070000000     0.437130000000     0.108769   
H74      H      0.665240000000     0.490820000000     0.369460000000     0.107823   
H75      H      0.583200000000     0.452230000000     0.413960000000     0.0227947  
H76      H      0.586880000000     0.510380000000     0.415170000000     0.0431714  
H77      H      0.639090000000     0.611930000000     0.161740000000     0.120556   
H78      H      0.528220000000     0.614460000000     0.200470000000     0.104792   
H79      H      0.538860000000     0.601890000000     0.135650000000     0.0235918  
H80      H      0.523900000000     0.543340000000     0.153080000000     0.0296183  
H81      H      0.881030000000     0.173560000000     0.504910000000     0.123702   
H82      H      0.803400000000     0.222660000000     0.476150000000     0.105042   
H83      H      0.835590000000     0.228880000000     0.539320000000     0.0256154  
H84      H      0.898750000000     0.271510000000     0.518550000000     0.0299358  
H85      H      0.987980000000     0.140460000000     0.232500000000     0.107142   
H86      H      0.006250000000     0.184920000000     0.297570000000     0.110186   
H87      H      0.910260000000     0.176480000000     0.254990000000     0.0463166  
H88      H      0.906660000000     0.121460000000     0.271180000000     0.0230574  
H89      H      0.253390000000     0.374830000000     0.349770000000     0.118458   
H90      H      0.179020000000     0.236950000000     0.337330000000     0.108529   
H91      H      0.162300000000     0.281090000000     0.383710000000     0.0284061  
H92      H      0.159270000000     0.317790000000     0.344920000000     0.0274281  
H93      H      0.408640000000     0.409890000000     0.075300000000     0.107934   
H94      H      0.342650000000     0.409510000000     0.125130000000     0.111803   
H95      H      0.309690000000     0.311320000000     0.095120000000     0.0400609  
H96      H      0.373820000000     0.338310000000     0.118540000000     0.0249595  
H97      H      0.106670000000     0.300010000000     0.103710000000     0.109001   
H98      H      0.092720000000     0.246750000000     0.173560000000     0.115748   
H99      H      0.138870000000     0.354730000000     0.158910000000     0.0310456  
H100     H      0.073590000000     0.320900000000     0.181300000000     0.0352266  
H101     H      0.488400000000     0.397110000000     0.251560000000     0.110993   
H102     H      0.403110000000     0.325890000000     0.274470000000     0.109573   
H103     H      0.437520000000     0.396580000000     0.320410000000     0.0260705  
H104     H      0.414990000000     0.426740000000     0.287980000000     0.0428503  
H105     H      0.701240000000     0.145090000000     0.451610000000     0.108391   
H106     H      0.707490000000     0.136340000000     0.382080000000     0.108146   
H107     H      0.706510000000     0.069400000000     0.426550000000     0.0253314  
H108     H      0.635090000000     0.039610000000     0.424080000000     0.0458483  
H109     H      0.474780000000     0.920910000000     0.211910000000     0.10098    
H110     H      0.533750000000     0.037900000000     0.173390000000     0.122692   
H111     H      0.558480000000     0.962180000000     0.158800000000     0.027948   
H112     H      0.489230000000     0.936290000000     0.146730000000     0.0271422  
H113     H      0.790530000000     0.037200000000     0.123460000000     0.108737   
H114     H      0.707650000000     0.009300000000     0.092400000000     0.109549   
H115     H      0.724180000000     0.060570000000     0.156130000000     0.0271526  
H116     H      0.753080000000     0.112280000000     0.124340000000     0.0434918  
H117     H      0.222610000000     0.971720000000     0.375710000000     0.105776   
H118     H      0.308700000000     0.947660000000     0.329470000000     0.118497   
H119     H      0.193390000000     0.883430000000     0.336520000000     0.0314865  
H120     H      0.206750000000     0.939160000000     0.313430000000     0.0219606  
H121     H      0.287410000000     0.788470000000     0.039770000000     0.107842   
H122     H      0.329790000000     0.839440000000     0.103780000000     0.112682   
H123     H      0.223720000000     0.826930000000     0.083400000000     0.0390287  
H124     H      0.222620000000     0.770270000000     0.090980000000     0.022712   
H125     H      0.444120000000     0.999320000000     0.464260000000     0.12097    
H126     H      0.481400000000     0.106940000000     0.510920000000     0.105735   
H127     H      0.393080000000     0.045580000000     0.509050000000     0.0269667  
H128     H      0.411870000000     0.010350000000     0.538870000000     0.0308708  
H129     H      0.836900000000     0.670680000000     0.525960000000     0.125267   
H130     H      0.862330000000     0.782140000000     0.483230000000     0.106169   
H131     H      0.875080000000     0.770450000000     0.547340000000     0.0263463  
H132     H      0.930690000000     0.769510000000     0.525770000000     0.0273964  
H133     H      0.937460000000     0.613800000000     0.311380000000     0.105787   
H134     H      0.940330000000     0.609290000000     0.245860000000     0.107652   
H135     H      0.962060000000     0.708980000000     0.272050000000     0.0406674  
H136     H      0.014510000000     0.694310000000     0.276370000000     0.0274792  
H137     H      0.741300000000     0.628990000000     0.345830000000     0.11698    
H138     H      0.704700000000     0.707170000000     0.325650000000     0.111865   
H139     H      0.796130000000     0.733570000000     0.316460000000     0.0328106  
H140     H      0.779460000000     0.684420000000     0.282740000000     0.0363186  
H141     H      0.118280000000     0.751000000000     0.425050000000     0.114136   
H142     H      0.031090000000     0.701990000000     0.475040000000     0.110702   
H143     H      0.086600000000     0.787020000000     0.492680000000     0.0277263  
H144     H      0.070120000000     0.806690000000     0.448780000000     0.03673    
H145     H      0.771740000000     0.023510000000     0.957070000000     0.111716   
H146     H      0.792090000000     0.049720000000     0.883620000000     0.108711   
H147     H      0.877340000000     0.064460000000     0.942980000000     0.0351684  
H148     H      0.853580000000     0.017570000000     0.906610000000     0.032713   
H149     H      0.028450000000     0.371450000000     0.809240000000     0.114187   
H150     H      0.019490000000     0.372380000000     0.891550000000     0.110633   
H151     H      0.974130000000     0.411680000000     0.859740000000     0.0299063  
H152     H      0.934210000000     0.356790000000     0.831880000000     0.035073   
H153     H      0.239520000000     0.669120000000     0.733010000000     0.110426   
H154     H      0.284170000000     0.746710000000     0.766400000000     0.107201   
H155     H      0.170440000000     0.707800000000     0.735620000000     0.039046   
H156     H      0.180330000000     0.699280000000     0.785390000000     0.0311221  
H157     H      0.652720000000     0.679540000000     0.981430000000     0.110315   
H158     H      0.684580000000     0.736170000000     0.047750000000     0.111758   
H159     H      0.753340000000     0.708790000000     0.029560000000     0.037424   
H160     H      0.753860000000     0.733810000000     0.982550000000     0.032631   
H161     H      0.300090000000     0.076220000000     0.682650000000     0.108855   
H162     H      0.259800000000     0.992610000000     0.659230000000     0.110115   
H163     H      0.367320000000     0.040050000000     0.641920000000     0.036634   
H164     H      0.369640000000     0.044360000000     0.693610000000     0.0331978  
H165     H      0.553770000000     0.333540000000     0.553680000000     0.111199   
H166     H      0.603250000000     0.408020000000     0.598860000000     0.110294   
H167     H      0.500770000000     0.382610000000     0.555450000000     0.0357139  
H168     H      0.497730000000     0.370880000000     0.606340000000     0.0343876  
H169     H      0.775530000000     0.810980000000     0.876670000000     0.121536   
H170     H      0.639280000000     0.806980000000     0.890390000000     0.105075   
H171     H      0.660930000000     0.763840000000     0.846540000000     0.0282403  
H172     H      0.684250000000     0.749310000000     0.889980000000     0.0193314  
H173     H      0.872260000000     0.939290000000     0.585710000000     0.108549   
H174     H      0.877950000000     0.952090000000     0.651960000000     0.108075   
H175     H      0.789970000000     0.948220000000     0.624210000000     0.0270673  
H176     H      0.765480000000     0.884020000000     0.621510000000     0.0387784  
H177     H      0.852080000000     0.755560000000     0.723900000000     0.121241   
H178     H      0.754040000000     0.638880000000     0.694000000000     0.108276   
H179     H      0.736370000000     0.702230000000     0.698760000000     0.0306918  
H180     H      0.784870000000     0.731890000000     0.661290000000     0.0294031  
H181     H      0.739040000000     0.016000000000     0.756500000000     0.112582   
H182     H      0.793320000000     0.989660000000     0.804790000000     0.107919   
H183     H      0.697630000000     0.952230000000     0.824620000000     0.028886   
H184     H      0.677130000000     0.917520000000     0.780890000000     0.039086   
H185     H      0.220430000000     0.650200000000     0.936270000000     0.108196   
H186     H      0.202510000000     0.576040000000     0.888880000000     0.111116   
H187     H      0.105350000000     0.577380000000     0.912260000000     0.0412462  
H188     H      0.150570000000     0.633640000000     0.888730000000     0.0271288  
H189     H      0.140390000000     0.496240000000     0.656390000000     0.121106   
H190     H      0.003670000000     0.482530000000     0.671950000000     0.109437   
H191     H      0.024970000000     0.438510000000     0.628470000000     0.0287387  
H192     H      0.055520000000     0.424610000000     0.668550000000     0.0260944  
H193     H      0.074870000000     0.714740000000     0.596100000000     0.107614   
H194     H      0.127930000000     0.679000000000     0.596700000000     0.108012   
H195     H      0.016960000000     0.605180000000     0.598560000000     0.0371285  
H196     H      0.027650000000     0.630960000000     0.551400000000     0.0331018  
H197     H      0.308980000000     0.170180000000     0.017400000000     0.107861   
H198     H      0.416990000000     0.133860000000     0.999020000000     0.118106   
H199     H      0.322190000000     0.089120000000     0.009330000000     0.0213901  
H200     H      0.310610000000     0.119450000000     0.969510000000     0.0279528  
H201     H      0.557870000000     0.268570000000     0.777890000000     0.107759   
H202     H      0.538600000000     0.236180000000     0.713890000000     0.109867   
H203     H      0.443390000000     0.232760000000     0.749780000000     0.0405656  
H204     H      0.496720000000     0.294080000000     0.742500000000     0.0259304  
H205     H      0.498490000000     0.101190000000     0.802830000000     0.118445   
H206     H      0.376050000000     0.043130000000     0.830800000000     0.108273   
H207     H      0.427420000000     0.005240000000     0.838720000000     0.0288979  
H208     H      0.467820000000     0.050540000000     0.874060000000     0.0351581  
H209     H      0.146730000000     0.431940000000     0.985170000000     0.111283   
H210     H      0.179570000000     0.385980000000     0.024120000000     0.109556   
H211     H      0.255200000000     0.480860000000     0.983150000000     0.0345143  
H212     H      0.246050000000     0.481400000000     0.034440000000     0.0328387  
H213     H      0.520340000000     0.343560000000     0.934000000000     0.10751    
H214     H      0.383280000000     0.274680000000     0.936760000000     0.123018   
H215     H      0.468340000000     0.380460000000     0.925530000000     0.0285661  
H216     H      0.441860000000     0.344660000000     0.882450000000     0.0292133  
H217     H      0.687680000000     0.509070000000     0.937130000000     0.108722   
H218     H      0.665250000000     0.490820000000     0.869460000000     0.107763   
H219     H      0.583200000000     0.452230000000     0.913960000000     0.0228147  
H220     H      0.586880000000     0.510380000000     0.915170000000     0.0431897  
H221     H      0.639090000000     0.611930000000     0.661740000000     0.120554   
H222     H      0.528220000000     0.614460000000     0.700470000000     0.104783   
H223     H      0.538860000000     0.601890000000     0.635650000000     0.023591   
H224     H      0.523900000000     0.543340000000     0.653080000000     0.0296208  
H225     H      0.881030000000     0.173560000000     0.004910000000     0.123673   
H226     H      0.803400000000     0.222660000000     0.976150000000     0.105024   
H227     H      0.835590000000     0.228880000000     0.039330000000     0.0256138  
H228     H      0.898750000000     0.271500000000     0.018550000000     0.0299328  
H229     H      0.987980000000     0.140460000000     0.732500000000     0.107184   
H230     H      0.006250000000     0.184920000000     0.797570000000     0.110186   
H231     H      0.910260000000     0.176490000000     0.754990000000     0.0463311  
H232     H      0.906660000000     0.121470000000     0.771180000000     0.0230912  
H233     H      0.253400000000     0.374830000000     0.849770000000     0.118473   
H234     H      0.179020000000     0.236950000000     0.837330000000     0.108533   
H235     H      0.162300000000     0.281090000000     0.883710000000     0.0283999  
H236     H      0.159270000000     0.317790000000     0.844920000000     0.0274229  
H237     H      0.408640000000     0.409890000000     0.575300000000     0.107934   
H238     H      0.342650000000     0.409510000000     0.625130000000     0.111801   
H239     H      0.309690000000     0.311320000000     0.595120000000     0.0400636  
H240     H      0.373820000000     0.338310000000     0.618530000000     0.0249579  
H241     H      0.106670000000     0.300010000000     0.603710000000     0.109005   
H242     H      0.092720000000     0.246750000000     0.673560000000     0.115759   
H243     H      0.138870000000     0.354730000000     0.658910000000     0.0310536  
H244     H      0.073590000000     0.320900000000     0.681300000000     0.0352299  
H245     H      0.488390000000     0.397110000000     0.751560000000     0.111023   
H246     H      0.403110000000     0.325890000000     0.774470000000     0.109569   
H247     H      0.437520000000     0.396580000000     0.820410000000     0.026078   
H248     H      0.414990000000     0.426740000000     0.787980000000     0.0428753  
H249     H      0.701240000000     0.145090000000     0.951600000000     0.108398   
H250     H      0.707490000000     0.136340000000     0.882080000000     0.108144   
H251     H      0.706510000000     0.069400000000     0.926550000000     0.0253364  
H252     H      0.635090000000     0.039610000000     0.924080000000     0.0458508  
H253     H      0.474780000000     0.920910000000     0.711910000000     0.100979   
H254     H      0.533750000000     0.037900000000     0.673400000000     0.122644   
H255     H      0.558480000000     0.962190000000     0.658800000000     0.0279558  
H256     H      0.489240000000     0.936300000000     0.646730000000     0.0271466  
H257     H      0.790530000000     0.037210000000     0.623460000000     0.108798   
H258     H      0.707650000000     0.009300000000     0.592400000000     0.109546   
H259     H      0.724180000000     0.060580000000     0.656130000000     0.0271417  
H260     H      0.753080000000     0.112280000000     0.624340000000     0.0434677  
H261     H      0.222610000000     0.971720000000     0.875710000000     0.105776   
H262     H      0.308700000000     0.947660000000     0.829480000000     0.118473   
H263     H      0.193400000000     0.883430000000     0.836520000000     0.0314936  
H264     H      0.206750000000     0.939160000000     0.813430000000     0.021968   
H265     H      0.287410000000     0.788470000000     0.539770000000     0.107809   
H266     H      0.329790000000     0.839440000000     0.603780000000     0.112734   
H267     H      0.223720000000     0.826930000000     0.583400000000     0.0390303  
H268     H      0.222620000000     0.770270000000     0.590980000000     0.022717   
H269     H      0.444120000000     0.999320000000     0.964260000000     0.120976   
H270     H      0.481400000000     0.106940000000     0.010920000000     0.105722   
H271     H      0.393080000000     0.045580000000     0.009050000000     0.0269598  
H272     H      0.411870000000     0.010350000000     0.038870000000     0.0308706  
H273     H      0.836900000000     0.670680000000     0.025950000000     0.125226   
H274     H      0.862330000000     0.782140000000     0.983230000000     0.106175   
H275     H      0.875080000000     0.770450000000     0.047340000000     0.0263477  
H276     H      0.930690000000     0.769510000000     0.025770000000     0.0273906  
H277     H      0.937460000000     0.613800000000     0.811390000000     0.10579    
H278     H      0.940330000000     0.609290000000     0.745860000000     0.107667   
H279     H      0.962070000000     0.708980000000     0.772050000000     0.0406592  
H280     H      0.014510000000     0.694300000000     0.776370000000     0.0274885  
H281     H      0.741300000000     0.628990000000     0.845830000000     0.116999   
H282     H      0.704700000000     0.707170000000     0.825650000000     0.111824   
H283     H      0.796130000000     0.733570000000     0.816460000000     0.0327953  
H284     H      0.779460000000     0.684420000000     0.782740000000     0.0363115  
H285     H      0.118280000000     0.751000000000     0.925050000000     0.11413    
H286     H      0.031090000000     0.701990000000     0.975030000000     0.110754   
H287     H      0.086600000000     0.787020000000     0.992690000000     0.0277476  
H288     H      0.070120000000     0.806690000000     0.948780000000     0.0367259  
N1       N      0.828240000000     0.068960000000     0.398690000000    -0.230775   
N2       N      0.796540000000     0.009660000000     0.448970000000    -0.23001    
N3       N      0.984830000000     0.352530000000     0.374990000000    -0.230527   
N4       N      0.015570000000     0.396050000000     0.316490000000    -0.2305     
N5       N      0.251450000000     0.749280000000     0.256370000000    -0.230078   
N6       N      0.203440000000     0.662560000000     0.245450000000    -0.229743   
N7       N      0.715930000000     0.751170000000     0.527710000000    -0.232713   
N8       N      0.679460000000     0.674150000000     0.498260000000    -0.231989   
N9       N      0.294450000000     0.993640000000     0.169630000000    -0.232491   
N10      N      0.332760000000     0.079890000000     0.166750000000    -0.232746   
N11      N      0.575790000000     0.415450000000     0.085120000000    -0.231825   
N12      N      0.522360000000     0.330500000000     0.070810000000    -0.231505   
N13      N      0.678050000000     0.812620000000     0.393440000000    -0.226492   
N14      N      0.745380000000     0.804380000000     0.356790000000    -0.227448   
N15      N      0.837470000000     0.925460000000     0.154060000000    -0.229603   
N16      N      0.831510000000     0.928350000000     0.084880000000    -0.22989    
N17      N      0.787340000000     0.673130000000     0.188420000000    -0.227953   
N18      N      0.815350000000     0.753020000000     0.217500000000    -0.226136   
N19      N      0.762180000000     0.958930000000     0.291400000000    -0.230271   
N20      N      0.706760000000     0.992870000000     0.274160000000    -0.22981    
N21      N      0.168280000000     0.577260000000     0.380670000000    -0.230337   
N22      N      0.181240000000     0.621370000000     0.439850000000    -0.231858   
N23      N      0.037780000000     0.480520000000     0.178970000000    -0.230049   
N24      N      0.108040000000     0.488180000000     0.138230000000    -0.229807   
N25      N      0.098680000000     0.648090000000     0.082250000000    -0.228017   
N26      N      0.040000000000     0.680550000000     0.096510000000    -0.227825   
N27      N      0.392100000000     0.139650000000     0.480540000000    -0.22707    
N28      N      0.338170000000     0.160170000000     0.521330000000    -0.228644   
N29      N      0.505430000000     0.241170000000     0.211860000000    -0.23051    
N30      N      0.516370000000     0.253310000000     0.280310000000    -0.230666   
N31      N      0.414000000000     0.065010000000     0.342840000000    -0.231038   
N32      N      0.493310000000     0.069620000000     0.316500000000    -0.228337   
N33      N      0.215340000000     0.411010000000     0.510560000000    -0.230583   
N34      N      0.176930000000     0.461690000000     0.500190000000    -0.230531   
N35      N      0.396710000000     0.311720000000     0.432440000000    -0.228123   
N36      N      0.484450000000     0.322510000000     0.419060000000    -0.231154   
N37      N      0.637650000000     0.502590000000     0.374150000000    -0.229964   
N38      N      0.650680000000     0.506340000000     0.442960000000    -0.230052   
N39      N      0.551870000000     0.598500000000     0.195520000000    -0.231116   
N40      N      0.606040000000     0.592680000000     0.143620000000    -0.226578   
N41      N      0.840470000000     0.224410000000     0.478470000000    -0.232283   
N42      N      0.886140000000     0.200230000000     0.524950000000    -0.227525   
N43      N      0.969960000000     0.184660000000     0.295070000000    -0.229072   
N44      N      0.965660000000     0.158010000000     0.229070000000    -0.230214   
N45      N      0.190700000000     0.272840000000     0.329540000000    -0.228709   
N46      N      0.236050000000     0.345240000000     0.368810000000    -0.22714    
N47      N      0.329180000000     0.372580000000     0.130450000000    -0.230627   
N48      N      0.372000000000     0.378160000000     0.070290000000    -0.230845   
N49      N      0.117380000000     0.283840000000     0.179780000000    -0.230158   
N50      N      0.079470000000     0.298890000000     0.124240000000    -0.228943   
N51      N      0.392050000000     0.352740000000     0.274050000000    -0.231569   
N52      N      0.481200000000     0.420330000000     0.268860000000    -0.23124    
N53      N      0.678520000000     0.099480000000     0.384910000000    -0.227752   
N54      N      0.674070000000     0.107700000000     0.454000000000    -0.227821   
N55      N      0.532100000000     0.013120000000     0.152720000000    -0.227677   
N56      N      0.508310000000     0.954750000000     0.205580000000    -0.230994   
N57      N      0.708880000000     0.042430000000     0.097540000000    -0.229675   
N58      N      0.793750000000     0.071210000000     0.128270000000    -0.23019    
N59      N      0.271940000000     0.926480000000     0.315560000000    -0.226864   
N60      N      0.236100000000     0.947050000000     0.370780000000    -0.231152   
N61      N      0.291300000000     0.831670000000     0.111760000000    -0.230102   
N62      N      0.272490000000     0.812010000000     0.045020000000    -0.230832   
N63      N      0.476330000000     0.071870000000     0.512280000000    -0.230542   
N64      N      0.411630000000     0.997390000000     0.479240000000    -0.226557   
N65      N      0.865600000000     0.751110000000     0.488130000000    -0.229906   
N66      N      0.866420000000     0.700470000000     0.541260000000    -0.227772   
N67      N      0.950070000000     0.645570000000     0.241690000000    -0.229029   
N68      N      0.946910000000     0.650300000000     0.310600000000    -0.229266   
N69      N      0.713440000000     0.683900000000     0.309840000000    -0.230418   
N70      N      0.773650000000     0.664110000000     0.341180000000    -0.230023   
N71      N      0.031340000000     0.729490000000     0.458100000000    -0.233721   
N72      N      0.123640000000     0.780000000000     0.442620000000    -0.23238    
N73      N      0.828240000000     0.068960000000     0.898690000000    -0.230781   
N74      N      0.796540000000     0.009660000000     0.948970000000    -0.229965   
N75      N      0.984830000000     0.352530000000     0.875000000000    -0.230548   
N76      N      0.015570000000     0.396050000000     0.816500000000    -0.230467   
N77      N      0.251450000000     0.749280000000     0.756370000000    -0.230097   
N78      N      0.203440000000     0.662560000000     0.745450000000    -0.229767   
N79      N      0.715930000000     0.751170000000     0.027710000000    -0.2327     
N80      N      0.679460000000     0.674150000000     0.998260000000    -0.231944   
N81      N      0.294450000000     0.993640000000     0.669640000000    -0.232562   
N82      N      0.332760000000     0.079890000000     0.666750000000    -0.232746   
N83      N      0.575790000000     0.415450000000     0.585120000000    -0.231864   
N84      N      0.522360000000     0.330500000000     0.570810000000    -0.231481   
N85      N      0.678050000000     0.812620000000     0.893440000000    -0.226472   
N86      N      0.745380000000     0.804370000000     0.856790000000    -0.227451   
N87      N      0.837470000000     0.925460000000     0.654060000000    -0.229556   
N88      N      0.831510000000     0.928350000000     0.584880000000    -0.229876   
N89      N      0.787340000000     0.673130000000     0.688420000000    -0.227912   
N90      N      0.815350000000     0.753010000000     0.717500000000    -0.226096   
N91      N      0.762180000000     0.958930000000     0.791400000000    -0.230287   
N92      N      0.706760000000     0.992870000000     0.774160000000    -0.229836   
N93      N      0.168280000000     0.577260000000     0.880670000000    -0.230335   
N94      N      0.181240000000     0.621380000000     0.939850000000    -0.231805   
N95      N      0.037780000000     0.480520000000     0.678970000000    -0.23006    
N96      N      0.108040000000     0.488180000000     0.638230000000    -0.229815   
N97      N      0.098680000000     0.648090000000     0.582250000000    -0.228033   
N98      N      0.040000000000     0.680550000000     0.596510000000    -0.227819   
N99      N      0.392100000000     0.139650000000     0.980530000000    -0.227153   
N100     N      0.338170000000     0.160170000000     0.021330000000    -0.228669   
N101     N      0.505440000000     0.241170000000     0.711860000000    -0.230529   
N102     N      0.516360000000     0.253310000000     0.780310000000    -0.230609   
N103     N      0.414010000000     0.065010000000     0.842840000000    -0.231007   
N104     N      0.493300000000     0.069620000000     0.816500000000    -0.22837    
N105     N      0.215340000000     0.411020000000     0.010560000000    -0.230538   
N106     N      0.176930000000     0.461690000000     0.000180000000    -0.230556   
N107     N      0.396710000000     0.311720000000     0.932440000000    -0.228117   
N108     N      0.484450000000     0.322510000000     0.919060000000    -0.231105   
N109     N      0.637650000000     0.502590000000     0.874150000000    -0.229846   
N110     N      0.650680000000     0.506340000000     0.942960000000    -0.229967   
N111     N      0.551870000000     0.598500000000     0.695520000000    -0.231085   
N112     N      0.606040000000     0.592680000000     0.643620000000    -0.226582   
N113     N      0.840470000000     0.224410000000     0.978480000000    -0.232205   
N114     N      0.886130000000     0.200230000000     0.024950000000    -0.227469   
N115     N      0.969960000000     0.184660000000     0.795070000000    -0.229047   
N116     N      0.965670000000     0.158010000000     0.729070000000    -0.230168   
N117     N      0.190700000000     0.272840000000     0.829540000000    -0.228717   
N118     N      0.236050000000     0.345240000000     0.868800000000    -0.22713    
N119     N      0.329180000000     0.372580000000     0.630450000000    -0.230625   
N120     N      0.372000000000     0.378160000000     0.570290000000    -0.230844   
N121     N      0.117390000000     0.283840000000     0.679780000000    -0.230203   
N122     N      0.079470000000     0.298890000000     0.624240000000    -0.228944   
N123     N      0.392050000000     0.352740000000     0.774050000000    -0.231556   
N124     N      0.481200000000     0.420330000000     0.768860000000    -0.231224   
N125     N      0.678520000000     0.099480000000     0.884910000000    -0.227753   
N126     N      0.674070000000     0.107700000000     0.954000000000    -0.227844   
N127     N      0.532100000000     0.013120000000     0.652720000000    -0.227631   
N128     N      0.508310000000     0.954750000000     0.705580000000    -0.230982   
N129     N      0.708880000000     0.042430000000     0.597540000000    -0.229662   
N130     N      0.793750000000     0.071210000000     0.628270000000    -0.230261   
N131     N      0.271940000000     0.926480000000     0.815560000000    -0.226836   
N132     N      0.236100000000     0.947050000000     0.870780000000    -0.231146   
N133     N      0.291310000000     0.831670000000     0.611760000000    -0.230125   
N134     N      0.272480000000     0.812010000000     0.545020000000    -0.230818   
N135     N      0.476330000000     0.071870000000     0.012280000000    -0.230543   
N136     N      0.411630000000     0.997390000000     0.979240000000    -0.226543   
N137     N      0.865600000000     0.751110000000     0.988130000000    -0.229889   
N138     N      0.866420000000     0.700470000000     0.041260000000    -0.227743   
N139     N      0.950080000000     0.645570000000     0.741690000000    -0.229017   
N140     N      0.946910000000     0.650300000000     0.810600000000    -0.229263   
N141     N      0.713440000000     0.683890000000     0.809840000000    -0.230429   
N142     N      0.773650000000     0.664110000000     0.841180000000    -0.23007    
N143     N      0.031340000000     0.729490000000     0.958100000000    -0.233756   
N144     N      0.123650000000     0.780000000000     0.942630000000    -0.232411   
Ni1      Ni     0.882470000000     0.659400000000     0.413250000000     1.01847    
Ni2      Ni     0.925000000000     0.738740000000     0.384890000000     1.00708    
Ni3      Ni     0.284630000000     0.870660000000     0.438310000000     1.00429    
Ni4      Ni     0.249390000000     0.907640000000     0.480150000000     1.01853    
Ni5      Ni     0.575700000000     0.018870000000     0.039890000000     1.00767    
Ni6      Ni     0.616740000000     0.100630000000     0.063080000000     1.00124    
Ni7      Ni     0.248040000000     0.280500000000     0.220380000000     1.01037    
Ni8      Ni     0.261330000000     0.359380000000     0.235580000000     1.00813    
Ni9      Ni     0.952620000000     0.162470000000     0.112210000000     1.00954    
Ni10     Ni     0.918470000000     0.210560000000     0.139250000000     1.01451    
Ni11     Ni     0.625500000000     0.545820000000     0.265780000000     1.00822    
Ni12     Ni     0.567850000000     0.561090000000     0.305550000000     1.01388    
Ni13     Ni     0.338340000000     0.401530000000     0.460410000000     1.00464    
Ni14     Ni     0.271380000000     0.320830000000     0.478140000000     1.01099    
Ni15     Ni     0.494040000000     0.201780000000     0.390400000000     1.01734    
Ni16     Ni     0.409100000000     0.188240000000     0.368750000000     1.00348    
Ni17     Ni     0.185510000000     0.582610000000     0.050860000000     1.00826    
Ni18     Ni     0.095680000000     0.531450000000     0.029240000000     1.01022    
Ni19     Ni     0.835090000000     0.880080000000     0.264500000000     1.00846    
Ni20     Ni     0.745060000000     0.835350000000     0.241740000000     0.99625    
Ni21     Ni     0.937640000000     0.718300000000     0.147250000000     0.990734   
Ni22     Ni     0.886660000000     0.632890000000     0.134820000000     1.00139    
Ni23     Ni     0.621300000000     0.063250000000     0.274120000000     0.999656   
Ni24     Ni     0.572420000000     0.992620000000     0.313480000000     1.01426    
Ni25     Ni     0.396690000000     0.219160000000     0.127580000000     1.0104     
Ni26     Ni     0.451750000000     0.188350000000     0.103910000000     1.01961    
Ni27     Ni     0.582730000000     0.534880000000     0.034820000000     1.0211     
Ni28     Ni     0.671850000000     0.557430000000     0.053630000000     1.01297    
Ni29     Ni     0.229220000000     0.856090000000     0.210500000000     1.00877    
Ni30     Ni     0.323610000000     0.891170000000     0.218790000000     1.01692    
Ni31     Ni     0.071530000000     0.539390000000     0.286930000000     0.999242   
Ni32     Ni     0.138800000000     0.519100000000     0.271660000000     1.02147    
Ni33     Ni     0.872350000000     0.207790000000     0.366510000000     1.01083    
Ni34     Ni     0.944100000000     0.213590000000     0.404840000000     1.01322    
Ni35     Ni     0.717470000000     0.876400000000     0.500560000000     1.01469    
Ni36     Ni     0.796740000000     0.882800000000     0.473310000000     1.00166    
Ni37     Ni     0.882470000000     0.659400000000     0.913250000000     1.01828    
Ni38     Ni     0.924990000000     0.738740000000     0.884890000000     1.00712    
Ni39     Ni     0.284630000000     0.870660000000     0.938310000000     1.00429    
Ni40     Ni     0.249400000000     0.907640000000     0.980160000000     1.01857    
Ni41     Ni     0.575700000000     0.018870000000     0.539890000000     1.00773    
Ni42     Ni     0.616740000000     0.100630000000     0.563080000000     1.00128    
Ni43     Ni     0.248040000000     0.280500000000     0.720380000000     1.01038    
Ni44     Ni     0.261330000000     0.359380000000     0.735590000000     1.0083     
Ni45     Ni     0.952620000000     0.162470000000     0.612210000000     1.00962    
Ni46     Ni     0.918470000000     0.210570000000     0.639250000000     1.01459    
Ni47     Ni     0.625500000000     0.545820000000     0.765780000000     1.00838    
Ni48     Ni     0.567850000000     0.561090000000     0.805550000000     1.01386    
Ni49     Ni     0.338340000000     0.401530000000     0.960410000000     1.00473    
Ni50     Ni     0.271380000000     0.320830000000     0.978140000000     1.01079    
Ni51     Ni     0.494050000000     0.201780000000     0.890400000000     1.01743    
Ni52     Ni     0.409100000000     0.188240000000     0.868750000000     1.00352    
Ni53     Ni     0.185510000000     0.582610000000     0.550860000000     1.00822    
Ni54     Ni     0.095680000000     0.531450000000     0.529240000000     1.01024    
Ni55     Ni     0.835090000000     0.880080000000     0.764500000000     1.00839    
Ni56     Ni     0.745060000000     0.835350000000     0.741740000000     0.996344   
Ni57     Ni     0.937640000000     0.718300000000     0.647250000000     0.990708   
Ni58     Ni     0.886670000000     0.632890000000     0.634820000000     1.00135    
Ni59     Ni     0.621300000000     0.063250000000     0.774120000000     0.999575   
Ni60     Ni     0.572420000000     0.992620000000     0.813480000000     1.0143     
Ni61     Ni     0.396690000000     0.219160000000     0.627580000000     1.01039    
Ni62     Ni     0.451750000000     0.188350000000     0.603910000000     1.01962    
Ni63     Ni     0.582720000000     0.534880000000     0.534820000000     1.02113    
Ni64     Ni     0.671840000000     0.557430000000     0.553630000000     1.01312    
Ni65     Ni     0.229220000000     0.856090000000     0.710500000000     1.00886    
Ni66     Ni     0.323610000000     0.891170000000     0.718790000000     1.01691    
Ni67     Ni     0.071530000000     0.539390000000     0.786930000000     0.998901   
Ni68     Ni     0.138800000000     0.519100000000     0.771670000000     1.02158    
Ni69     Ni     0.872350000000     0.207790000000     0.866510000000     1.01084    
Ni70     Ni     0.944100000000     0.213590000000     0.904840000000     1.01318    
Ni71     Ni     0.717470000000     0.876400000000     0.000560000000     1.01459    
Ni72     Ni     0.796740000000     0.882800000000     0.973310000000     1.00172    
O1       O      0.904970000000     0.638250000000     0.368610000000    -0.452786   
O2       O      0.864930000000     0.687110000000     0.456530000000    -0.447688   
O3       O      0.819090000000     0.647350000000     0.386300000000    -0.457738   
O4       O      0.947750000000     0.675740000000     0.438220000000    -0.461474   
O5       O      0.986990000000     0.751460000000     0.414760000000    -0.452995   
O6       O      0.860000000000     0.719920000000     0.357220000000    -0.451856   
O7       O      0.899030000000     0.759440000000     0.427550000000    -0.457119   
O8       O      0.947670000000     0.713170000000     0.343550000000    -0.453112   
O9       O      0.292390000000     0.838890000000     0.483020000000    -0.452897   
O10      O      0.271680000000     0.902770000000     0.396290000000    -0.449581   
O11      O      0.354400000000     0.926870000000     0.447330000000    -0.449245   
O12      O      0.213240000000     0.817510000000     0.432160000000    -0.454664   
O13      O      0.180230000000     0.853970000000     0.469130000000    -0.461384   
O14      O      0.321240000000     0.958810000000     0.488770000000    -0.456109   
O15      O      0.243650000000     0.941050000000     0.435720000000    -0.454745   
O16      O      0.255790000000     0.870680000000     0.521530000000    -0.452802   
O17      O      0.612270000000     0.045110000000     0.491740000000    -0.448935   
O18      O      0.543830000000     0.998660000000     0.089890000000    -0.453128   
O19      O      0.516560000000     0.026290000000     0.523190000000    -0.449503   
O20      O      0.636330000000     0.016100000000     0.058740000000    -0.456096   
O21      O      0.671680000000     0.090250000000     0.084770000000    -0.450213   
O22      O      0.558640000000     0.104760000000     0.540020000000    -0.454441   
O23      O      0.576360000000     0.075300000000     0.109870000000    -0.451162   
O24      O      0.654780000000     0.120870000000     0.515020000000    -0.452193   
O25      O      0.215390000000     0.259440000000     0.270300000000    -0.452317   
O26      O      0.283120000000     0.307860000000     0.171720000000    -0.45092    
O27      O      0.315870000000     0.299660000000     0.243010000000    -0.459611   
O28      O      0.180440000000     0.265700000000     0.199070000000    -0.457405   
O29      O      0.193680000000     0.340170000000     0.211000000000    -0.44916    
O30      O      0.328320000000     0.373030000000     0.258350000000    -0.451306   
O31      O      0.296000000000     0.381410000000     0.187020000000    -0.458708   
O32      O      0.226100000000     0.332680000000     0.283670000000    -0.455809   
O33      O      0.928360000000     0.171820000000     0.063260000000    -0.454945   
O34      O      0.973090000000     0.155480000000     0.163640000000    -0.454469   
O35      O      0.883520000000     0.106580000000     0.120080000000    -0.455287   
O36      O      0.019520000000     0.221700000000     0.105750000000    -0.455888   
O37      O      0.990530000000     0.264620000000     0.138510000000    -0.45021    
O38      O      0.849290000000     0.152860000000     0.138460000000    -0.454152   
O39      O      0.932050000000     0.192920000000     0.188690000000    -0.458099   
O40      O      0.905810000000     0.224220000000     0.087770000000    -0.455789   
O41      O      0.601350000000     0.567910000000     0.222800000000    -0.452689   
O42      O      0.645230000000     0.523690000000     0.310900000000    -0.455649   
O43      O      0.566510000000     0.481230000000     0.257860000000    -0.452936   
O44      O      0.680780000000     0.611480000000     0.277300000000    -0.452638   
O45      O      0.626180000000     0.625400000000     0.313880000000    -0.45946    
O46      O      0.512840000000     0.495920000000     0.294840000000    -0.45891    
O47      O      0.590760000000     0.536860000000     0.348200000000    -0.451391   
O48      O      0.549230000000     0.584090000000     0.260100000000    -0.453886   
O49      O      0.369500000000     0.406750000000     0.510460000000    -0.455355   
O50      O      0.302730000000     0.390370000000     0.411510000000    -0.452474   
O51      O      0.292520000000     0.423790000000     0.481260000000    -0.452235   
O52      O      0.379920000000     0.374420000000     0.440880000000    -0.453662   
O53      O      0.318240000000     0.299160000000     0.458360000000    -0.452446   
O54      O      0.229840000000     0.348260000000     0.497300000000    -0.454438   
O55      O      0.240670000000     0.314750000000     0.427810000000    -0.452057   
O56      O      0.305700000000     0.332040000000     0.527310000000    -0.453125   
O57      O      0.460980000000     0.172790000000     0.438270000000    -0.45885    
O58      O      0.522300000000     0.230230000000     0.341190000000    -0.457894   
O59      O      0.507560000000     0.264130000000     0.409190000000    -0.452209   
O60      O      0.473960000000     0.138140000000     0.370420000000    -0.4487     
O61      O      0.393640000000     0.124890000000     0.352120000000    -0.455468   
O62      O      0.429500000000     0.252180000000     0.386670000000    -0.456157   
O63      O      0.442630000000     0.215330000000     0.319790000000    -0.448492   
O64      O      0.382060000000     0.162570000000     0.419520000000    -0.448716   
O65      O      0.200760000000     0.614590000000     0.502030000000    -0.459542   
O66      O      0.165750000000     0.547300000000     0.098060000000    -0.460158   
O67      O      0.201840000000     0.534920000000     0.530000000000    -0.447168   
O68      O      0.161880000000     0.626020000000     0.070470000000    -0.44658    
O69      O      0.078530000000     0.578420000000     0.049250000000    -0.452277   
O70      O      0.117530000000     0.487390000000     0.510540000000    -0.456615   
O71      O      0.081090000000     0.500530000000     0.079070000000    -0.451515   
O72      O      0.117590000000     0.565800000000     0.480920000000    -0.450979   
O73      O      0.854750000000     0.909630000000     0.214580000000    -0.455822   
O74      O      0.810180000000     0.848700000000     0.313200000000    -0.456142   
O75      O      0.844170000000     0.826680000000     0.247150000000    -0.447699   
O76      O      0.819230000000     0.929810000000     0.280630000000    -0.449565   
O77      O      0.735120000000     0.887280000000     0.259530000000    -0.453059   
O78      O      0.760410000000     0.785500000000     0.225260000000    -0.448405   
O79      O      0.725640000000     0.807270000000     0.292790000000    -0.446881   
O80      O      0.770830000000     0.868400000000     0.192900000000    -0.445874   
O81      O      0.953710000000     0.701680000000     0.197500000000    -0.444247   
O82      O      0.916890000000     0.728070000000     0.096560000000    -0.446053   
O83      O      0.874380000000     0.715170000000     0.167970000000    -0.449175   
O84      O      0.998020000000     0.716790000000     0.125440000000    -0.450677   
O85      O      0.949880000000     0.637750000000     0.110940000000    -0.442196   
O86      O      0.827900000000     0.634510000000     0.160390000000    -0.447899   
O87      O      0.865600000000     0.648110000000     0.086670000000    -0.45596    
O88      O      0.910260000000     0.622380000000     0.183320000000    -0.456522   
O89      O      0.659430000000     0.096700000000     0.320450000000    -0.447907   
O90      O      0.579410000000     0.024340000000     0.230810000000    -0.444648   
O91      O      0.567470000000     0.079840000000     0.285500000000    -0.455256   
O92      O      0.672360000000     0.042750000000     0.265140000000    -0.455147   
O93      O      0.626040000000     0.975500000000     0.300490000000    -0.450148   
O94      O      0.523270000000     0.015410000000     0.324120000000    -0.451285   
O95      O      0.531520000000     0.959950000000     0.268650000000    -0.45858    
O96      O      0.615200000000     0.029480000000     0.356080000000    -0.457071   
O97      O      0.358230000000     0.198990000000     0.079550000000    -0.452657   
O98      O      0.438400000000     0.236960000000     0.173980000000    -0.453367   
O99      O      0.446600000000     0.280610000000     0.105040000000    -0.454809   
O100     O      0.351210000000     0.155840000000     0.149130000000    -0.457317   
O101     O      0.404990000000     0.128460000000     0.129300000000    -0.459116   
O102     O      0.495540000000     0.250590000000     0.080290000000    -0.456977   
O103     O      0.492500000000     0.211730000000     0.150590000000    -0.454693   
O104     O      0.406590000000     0.166350000000     0.059150000000    -0.455186   
O105     O      0.575110000000     0.557750000000     0.084440000000    -0.455407   
O106     O      0.596220000000     0.513900000000     0.486670000000    -0.457781   
O107     O      0.560020000000     0.471920000000     0.056300000000    -0.458292   
O108     O      0.611510000000     0.598850000000     0.513580000000    -0.460162   
O109     O      0.694570000000     0.620190000000     0.531800000000    -0.455706   
O110     O      0.643060000000     0.492930000000     0.074250000000    -0.456413   
O111     O      0.679400000000     0.534520000000     0.503890000000    -0.452798   
O112     O      0.658610000000     0.579620000000     0.101770000000    -0.451217   
O113     O      0.228640000000     0.881140000000     0.261580000000    -0.444985   
O114     O      0.238280000000     0.835080000000     0.159950000000    -0.446343   
O115     O      0.220410000000     0.797390000000     0.232310000000    -0.458927   
O116     O      0.242320000000     0.915870000000     0.188680000000    -0.464283   
O117     O      0.330660000000     0.950030000000     0.196320000000    -0.448229   
O118     O      0.308290000000     0.829220000000     0.240550000000    -0.449506   
O119     O      0.326250000000     0.867950000000     0.168790000000    -0.462701   
O120     O      0.316840000000     0.913220000000     0.268250000000    -0.461115   
O121     O      0.042870000000     0.517510000000     0.236310000000    -0.455903   
O122     O      0.103440000000     0.559990000000     0.336230000000    -0.459906   
O123     O      0.120430000000     0.604300000000     0.267700000000    -0.444182   
O124     O      0.028980000000     0.473290000000     0.306160000000    -0.445114   
O125     O      0.092310000000     0.455440000000     0.290720000000    -0.462726   
O126     O      0.181830000000     0.583840000000     0.252730000000    -0.460435   
O127     O      0.166900000000     0.541540000000     0.322900000000    -0.451752   
O128     O      0.105070000000     0.497800000000     0.222240000000    -0.454683   
O129     O      0.907230000000     0.198780000000     0.322970000000    -0.454792   
O130     O      0.841580000000     0.215820000000     0.413150000000    -0.457326   
O131     O      0.913510000000     0.277400000000     0.360460000000    -0.452255   
O132     O      0.835970000000     0.138880000000     0.374780000000    -0.456217   
O133     O      0.902570000000     0.143610000000     0.410690000000    -0.450671   
O134     O      0.979770000000     0.282730000000     0.397100000000    -0.453439   
O135     O      0.909260000000     0.221840000000     0.448320000000    -0.458291   
O136     O      0.975000000000     0.205350000000     0.358480000000    -0.45575    
O137     O      0.757040000000     0.903460000000     0.547310000000    -0.45167    
O138     O      0.682920000000     0.848260000000     0.451900000000    -0.450853   
O139     O      0.700220000000     0.813670000000     0.519220000000    -0.461671   
O140     O      0.740260000000     0.940290000000     0.481100000000    -0.456673   
O141     O      0.813370000000     0.946110000000     0.454070000000    -0.447708   
O142     O      0.774370000000     0.819350000000     0.494130000000    -0.456      
O143     O      0.756280000000     0.851720000000     0.427850000000    -0.451158   
O144     O      0.831790000000     0.911800000000     0.521100000000    -0.454227   
O145     O      0.904980000000     0.638250000000     0.868610000000    -0.452739   
O146     O      0.864930000000     0.687110000000     0.956530000000    -0.447669   
O147     O      0.819090000000     0.647350000000     0.886300000000    -0.457681   
O148     O      0.947760000000     0.675740000000     0.938220000000    -0.461403   
O149     O      0.986990000000     0.751460000000     0.914760000000    -0.452946   
O150     O      0.860000000000     0.719920000000     0.857220000000    -0.451883   
O151     O      0.899030000000     0.759440000000     0.927550000000    -0.457169   
O152     O      0.947670000000     0.713170000000     0.843550000000    -0.453076   
O153     O      0.292390000000     0.838890000000     0.983020000000    -0.45287    
O154     O      0.271680000000     0.902770000000     0.896290000000    -0.44957    
O155     O      0.354400000000     0.926870000000     0.947330000000    -0.449253   
O156     O      0.213240000000     0.817510000000     0.932160000000    -0.45467    
O157     O      0.180230000000     0.853970000000     0.969130000000    -0.461333   
O158     O      0.321240000000     0.958810000000     0.988770000000    -0.456173   
O159     O      0.243650000000     0.941050000000     0.935720000000    -0.454641   
O160     O      0.255790000000     0.870680000000     0.021530000000    -0.452927   
O161     O      0.612280000000     0.045110000000     0.991740000000    -0.44889    
O162     O      0.543830000000     0.998660000000     0.589890000000    -0.453136   
O163     O      0.516560000000     0.026290000000     0.023190000000    -0.449512   
O164     O      0.636330000000     0.016100000000     0.558740000000    -0.45605    
O165     O      0.671680000000     0.090260000000     0.584770000000    -0.450127   
O166     O      0.558640000000     0.104760000000     0.040020000000    -0.45444    
O167     O      0.576360000000     0.075300000000     0.609870000000    -0.451161   
O168     O      0.654780000000     0.120870000000     0.015020000000    -0.452213   
O169     O      0.215390000000     0.259440000000     0.770300000000    -0.452321   
O170     O      0.283120000000     0.307860000000     0.671720000000    -0.450913   
O171     O      0.315870000000     0.299660000000     0.743010000000    -0.459621   
O172     O      0.180440000000     0.265700000000     0.699070000000    -0.45742    
O173     O      0.193680000000     0.340170000000     0.711000000000    -0.44916    
O174     O      0.328320000000     0.373030000000     0.758350000000    -0.451373   
O175     O      0.296000000000     0.381410000000     0.687020000000    -0.458653   
O176     O      0.226100000000     0.332680000000     0.783660000000    -0.455977   
O177     O      0.928360000000     0.171820000000     0.563260000000    -0.454971   
O178     O      0.973090000000     0.155480000000     0.663640000000    -0.454423   
O179     O      0.883520000000     0.106580000000     0.620080000000    -0.455304   
O180     O      0.019520000000     0.221700000000     0.605750000000    -0.455902   
O181     O      0.990530000000     0.264620000000     0.638510000000    -0.450264   
O182     O      0.849290000000     0.152860000000     0.638460000000    -0.454149   
O183     O      0.932050000000     0.192930000000     0.688690000000    -0.457994   
O184     O      0.905810000000     0.224220000000     0.587770000000    -0.455863   
O185     O      0.601350000000     0.567910000000     0.722810000000    -0.452826   
O186     O      0.645230000000     0.523690000000     0.810890000000    -0.455564   
O187     O      0.566510000000     0.481230000000     0.757850000000    -0.452858   
O188     O      0.680780000000     0.611480000000     0.777310000000    -0.452717   
O189     O      0.626180000000     0.625400000000     0.813890000000    -0.45942    
O190     O      0.512840000000     0.495920000000     0.794840000000    -0.458873   
O191     O      0.590750000000     0.536860000000     0.848200000000    -0.451249   
O192     O      0.549230000000     0.584090000000     0.760100000000    -0.454007   
O193     O      0.369500000000     0.406750000000     0.010460000000    -0.455383   
O194     O      0.302730000000     0.390370000000     0.911510000000    -0.452543   
O195     O      0.292520000000     0.423790000000     0.981260000000    -0.452216   
O196     O      0.379920000000     0.374420000000     0.940880000000    -0.453658   
O197     O      0.318240000000     0.299160000000     0.958360000000    -0.452407   
O198     O      0.229840000000     0.348260000000     0.997310000000    -0.45435    
O199     O      0.240670000000     0.314750000000     0.927800000000    -0.451964   
O200     O      0.305700000000     0.332040000000     0.027310000000    -0.453109   
O201     O      0.460980000000     0.172790000000     0.938270000000    -0.458883   
O202     O      0.522300000000     0.230230000000     0.841190000000    -0.457938   
O203     O      0.507570000000     0.264130000000     0.909190000000    -0.452129   
O204     O      0.473960000000     0.138140000000     0.870420000000    -0.448737   
O205     O      0.393640000000     0.124890000000     0.852120000000    -0.455473   
O206     O      0.429500000000     0.252180000000     0.886680000000    -0.456158   
O207     O      0.442630000000     0.215330000000     0.819790000000    -0.448513   
O208     O      0.382060000000     0.162570000000     0.919520000000    -0.44874    
O209     O      0.200760000000     0.614590000000     0.002030000000    -0.459575   
O210     O      0.165750000000     0.547290000000     0.598060000000    -0.460155   
O211     O      0.201840000000     0.534920000000     0.030000000000    -0.447181   
O212     O      0.161880000000     0.626020000000     0.570470000000    -0.446609   
O213     O      0.078530000000     0.578420000000     0.549260000000    -0.452313   
O214     O      0.117530000000     0.487390000000     0.010540000000    -0.456624   
O215     O      0.081090000000     0.500530000000     0.579070000000    -0.451524   
O216     O      0.117590000000     0.565800000000     0.980920000000    -0.450944   
O217     O      0.854750000000     0.909630000000     0.714580000000    -0.455908   
O218     O      0.810170000000     0.848700000000     0.813200000000    -0.456124   
O219     O      0.844170000000     0.826680000000     0.747150000000    -0.447672   
O220     O      0.819230000000     0.929810000000     0.780640000000    -0.449525   
O221     O      0.735130000000     0.887280000000     0.759530000000    -0.453169   
O222     O      0.760410000000     0.785500000000     0.725260000000    -0.448401   
O223     O      0.725630000000     0.807270000000     0.792790000000    -0.446878   
O224     O      0.770830000000     0.868400000000     0.692900000000    -0.445916   
O225     O      0.953710000000     0.701680000000     0.697500000000    -0.44424    
O226     O      0.916890000000     0.728070000000     0.596560000000    -0.446042   
O227     O      0.874380000000     0.715170000000     0.667970000000    -0.44911    
O228     O      0.998020000000     0.716790000000     0.625440000000    -0.450678   
O229     O      0.949880000000     0.637750000000     0.610930000000    -0.442211   
O230     O      0.827900000000     0.634500000000     0.660390000000    -0.447718   
O231     O      0.865600000000     0.648110000000     0.586670000000    -0.455911   
O232     O      0.910260000000     0.622380000000     0.683320000000    -0.456549   
O233     O      0.659430000000     0.096700000000     0.820450000000    -0.447894   
O234     O      0.579420000000     0.024340000000     0.730810000000    -0.444634   
O235     O      0.567470000000     0.079840000000     0.785500000000    -0.455108   
O236     O      0.672370000000     0.042750000000     0.765150000000    -0.455179   
O237     O      0.626040000000     0.975500000000     0.800490000000    -0.45019    
O238     O      0.523270000000     0.015410000000     0.824120000000    -0.451264   
O239     O      0.531520000000     0.959950000000     0.768650000000    -0.458567   
O240     O      0.615200000000     0.029480000000     0.856080000000    -0.457073   
O241     O      0.358230000000     0.198990000000     0.579550000000    -0.452648   
O242     O      0.438400000000     0.236960000000     0.673980000000    -0.453275   
O243     O      0.446600000000     0.280610000000     0.605040000000    -0.454866   
O244     O      0.351210000000     0.155840000000     0.649130000000    -0.457316   
O245     O      0.404990000000     0.128460000000     0.629300000000    -0.459114   
O246     O      0.495540000000     0.250590000000     0.580290000000    -0.456965   
O247     O      0.492500000000     0.211730000000     0.650590000000    -0.454724   
O248     O      0.406590000000     0.166350000000     0.559150000000    -0.455175   
O249     O      0.575110000000     0.557750000000     0.584440000000    -0.455454   
O250     O      0.596220000000     0.513900000000     0.986670000000    -0.457742   
O251     O      0.560020000000     0.471920000000     0.556300000000    -0.458376   
O252     O      0.611510000000     0.598850000000     0.013580000000    -0.460135   
O253     O      0.694570000000     0.620190000000     0.031800000000    -0.45568    
O254     O      0.643050000000     0.492930000000     0.574250000000    -0.456524   
O255     O      0.679410000000     0.534520000000     0.003890000000    -0.452726   
O256     O      0.658610000000     0.579620000000     0.601770000000    -0.451256   
O257     O      0.228640000000     0.881140000000     0.761580000000    -0.444984   
O258     O      0.238280000000     0.835080000000     0.659950000000    -0.44636    
O259     O      0.220410000000     0.797390000000     0.732310000000    -0.458944   
O260     O      0.242320000000     0.915870000000     0.688690000000    -0.464289   
O261     O      0.330660000000     0.950030000000     0.696320000000    -0.448176   
O262     O      0.308290000000     0.829220000000     0.740550000000    -0.449508   
O263     O      0.326250000000     0.867950000000     0.668790000000    -0.462695   
O264     O      0.316840000000     0.913220000000     0.768250000000    -0.461107   
O265     O      0.042870000000     0.517510000000     0.736300000000    -0.455844   
O266     O      0.103440000000     0.559990000000     0.836240000000    -0.459802   
O267     O      0.120430000000     0.604300000000     0.767700000000    -0.444147   
O268     O      0.028980000000     0.473290000000     0.806160000000    -0.445071   
O269     O      0.092310000000     0.455440000000     0.790720000000    -0.462762   
O270     O      0.181830000000     0.583840000000     0.752740000000    -0.460459   
O271     O      0.166900000000     0.541540000000     0.822900000000    -0.451844   
O272     O      0.105070000000     0.497800000000     0.722240000000    -0.454638   
O273     O      0.907230000000     0.198780000000     0.822970000000    -0.454792   
O274     O      0.841580000000     0.215820000000     0.913150000000    -0.457309   
O275     O      0.913510000000     0.277400000000     0.860460000000    -0.452281   
O276     O      0.835970000000     0.138880000000     0.874780000000    -0.456224   
O277     O      0.902560000000     0.143610000000     0.910700000000    -0.450674   
O278     O      0.979770000000     0.282730000000     0.897100000000    -0.453429   
O279     O      0.909260000000     0.221840000000     0.948320000000    -0.458188   
O280     O      0.975000000000     0.205350000000     0.858480000000    -0.455751   
O281     O      0.757040000000     0.903460000000     0.047310000000    -0.451662   
O282     O      0.682920000000     0.848260000000     0.951900000000    -0.450822   
O283     O      0.700220000000     0.813670000000     0.019220000000    -0.461654   
O284     O      0.740260000000     0.940290000000     0.981100000000    -0.456714   
O285     O      0.813370000000     0.946110000000     0.954070000000    -0.447715   
O286     O      0.774370000000     0.819350000000     0.994130000000    -0.455966   
O287     O      0.756280000000     0.851720000000     0.927850000000    -0.451164   
O288     O      0.831790000000     0.911800000000     0.021100000000    -0.454256   


