data_structure

_audit_creation_method RASPA-1.0
_audit_creation_date 2023-6-5
_audit_author_name 'Poobodin Mano'

_cell_length_a    34.6803
_cell_length_b    34.7135
_cell_length_c    20.1142
_cell_angle_alpha 89.9811
_cell_angle_beta  90.019
_cell_angle_gamma 119.972
_cell_volume      20976.7

_symmetry_cell_setting          triclinic
_symmetry_space_group_name_Hall 'P 1'
_symmetry_space_group_name_H-M  'P 1'
_symmetry_Int_Tables_number     1

_symmetry_equiv_pos_as_xyz 'x,y,z'

loop_
_atom_site_label
_atom_site_type_symbol
_atom_site_fract_x
_atom_site_fract_y
_atom_site_fract_z
_atom_site_charge
C1       C      0.925340000000     0.721420000000     0.537680000000     0.443359   
C2       C      0.838040000000     0.711100000000     0.747210000000     0.442993   
C3       C      0.810100000000     0.664620000000     0.581310000000     0.444683   
C4       C      0.954260000000     0.768350000000     0.702520000000     0.443551   
C5       C      0.174810000000     0.845590000000     0.007670000000     0.443334   
C6       C      0.244950000000     0.901620000000     0.779910000000     0.443835   
C7       C      0.285190000000     0.920390000000     0.949110000000     0.443702   
C8       C      0.134270000000     0.825930000000     0.838630000000     0.444753   
C9       C      0.520570000000     0.005010000000     0.228880000000     0.443066   
C10      C      0.564650000000     0.989100000000     0.993100000000     0.443618   
C11      C      0.625100000000     0.037090000000     0.144910000000     0.442808   
C12      C      0.461580000000     0.957450000000     0.077490000000     0.443689   
C13      C      0.240170000000     0.439700000000     0.471230000000     0.443723   
C14      C      0.274250000000     0.414760000000     0.233780000000     0.44232    
C15      C      0.338960000000     0.456020000000     0.383690000000     0.442543   
C16      C      0.176880000000     0.398500000000     0.320520000000     0.44291    
C17      C      0.920860000000     0.251550000000     0.099530000000     0.444119   
C18      C      0.884830000000     0.195460000000     0.337810000000     0.444688   
C19      C      0.818730000000     0.186920000000     0.194260000000     0.442677   
C20      C      0.984760000000     0.259230000000     0.243090000000     0.443803   
C21      C      0.620650000000     0.496740000000     0.393200000000     0.441875   
C22      C      0.553510000000     0.456990000000     0.625610000000     0.444423   
C23      C      0.508710000000     0.450660000000     0.460960000000     0.443042   
C24      C      0.662870000000     0.502460000000     0.557240000000     0.44328    
C25      C      0.278530000000     0.499480000000     0.714380000000     0.44399    
C26      C      0.317660000000     0.468220000000     0.944970000000     0.442567   
C27      C      0.312460000000     0.424620000000     0.781250000000     0.44479    
C28      C      0.283000000000     0.542710000000     0.879130000000     0.443453   
C29      C      0.406120000000     0.237400000000     0.827620000000     0.442704   
C30      C      0.458100000000     0.291530000000     0.591260000000     0.44398    
C31      C      0.417140000000     0.328700000000     0.727000000000     0.445518   
C32      C      0.447940000000     0.201390000000     0.691370000000     0.443365   
C33      C      0.124950000000     0.623650000000     0.943630000000     0.442262   
C34      C      0.094100000000     0.546610000000     0.169180000000     0.442096   
C35      C      0.146500000000     0.542140000000     0.017130000000     0.443794   
C36      C      0.072140000000     0.628930000000     0.095110000000     0.442746   
C37      C      0.717600000000     0.895420000000     0.237650000000     0.443059   
C38      C      0.682650000000     0.806710000000     0.452920000000     0.44351    
C39      C      0.713000000000     0.793430000000     0.285020000000     0.44283    
C40      C      0.688580000000     0.908640000000     0.405050000000     0.444592   
C41      C      0.914840000000     0.746030000000     0.255140000000     0.44205    
C42      C      0.843750000000     0.683180000000     0.029810000000     0.441861   
C43      C      0.837400000000     0.757410000000     0.146220000000     0.443006   
C44      C      0.920920000000     0.671350000000     0.138880000000     0.442429   
C45      C      0.597660000000     0.041460000000     0.701530000000     0.443255   
C46      C      0.551160000000     0.063410000000     0.470540000000     0.44419    
C47      C      0.558060000000     0.111470000000     0.631250000000     0.44448    
C48      C      0.589270000000     0.993010000000     0.540160000000     0.44545    
C49      C      0.439750000000     0.200990000000     0.092410000000     0.442138   
C50      C      0.408160000000     0.218150000000     0.334760000000     0.44284    
C51      C      0.439090000000     0.287250000000     0.188030000000     0.442549   
C52      C      0.407810000000     0.130370000000     0.238620000000     0.441798   
C53      C      0.622930000000     0.536190000000     0.138770000000     0.44346    
C54      C      0.583770000000     0.489860000000     0.896570000000     0.442634   
C55      C      0.568590000000     0.432000000000     0.051440000000     0.444995   
C56      C      0.640070000000     0.594540000000     0.982540000000     0.443457   
C57      C      0.254470000000     0.919830000000     0.508260000000     0.442825   
C58      C      0.200900000000     0.870830000000     0.270990000000     0.443378   
C59      C      0.186930000000     0.814650000000     0.426690000000     0.443419   
C60      C      0.268500000000     0.976930000000     0.353810000000     0.443575   
C61      C      0.094640000000     0.572810000000     0.664270000000     0.442188   
C62      C      0.130660000000     0.527010000000     0.442330000000     0.443143   
C63      C      0.071070000000     0.468640000000     0.590120000000     0.443199   
C64      C      0.154500000000     0.630920000000     0.517390000000     0.443335   
C65      C      0.865140000000     0.166910000000     0.598670000000     0.444195   
C66      C      0.907630000000     0.239750000000     0.826850000000     0.444881   
C67      C      0.919980000000     0.280190000000     0.659810000000     0.442877   
C68      C      0.854040000000     0.126810000000     0.765920000000     0.443844   
C69      C      0.663670000000     0.859950000000     0.972520000000     0.443941   
C70      C      0.707700000000     0.840360000000     0.738540000000     0.442586   
C71      C      0.654100000000     0.768160000000     0.878540000000     0.44347    
C72      C      0.716190000000     0.933080000000     0.832360000000     0.443407   
C73      C      0.779580000000     0.009740000000     0.825410000000    -0.0087549  
C74      C      0.789310000000     0.056020000000     0.802970000000    -0.00900504 
C75      C      0.000800000000     0.397310000000     0.606170000000    -0.00957542 
C76      C      0.986540000000     0.348930000000     0.623270000000    -0.0087733  
C77      C      0.154140000000     0.697370000000     0.474420000000    -0.00865556 
C78      C      0.187440000000     0.745820000000     0.456310000000    -0.0088706  
C79      C      0.663430000000     0.705450000000     0.916630000000    -0.0089455  
C80      C      0.633840000000     0.659460000000     0.947570000000    -0.008776   
C81      C      0.338640000000     0.047950000000     0.332670000000    -0.00198934 
C82      C      0.353950000000     0.050850000000     0.260510000000    -0.00785649 
C83      C      0.502910000000     0.359760000000     0.082320000000    -0.000737896
C84      C      0.492270000000     0.364530000000     0.154760000000    -0.00733607 
C85      C      0.702600000000     0.796760000000     0.567990000000    -0.00915452 
C86      C      0.690750000000     0.822140000000     0.618790000000    -0.00683022 
C87      C      0.678050000000     0.866790000000     0.094170000000    -0.00706725 
C88      C      0.693320000000     0.911130000000     0.129680000000    -0.0035727  
C89      C      0.764020000000     0.769380000000     0.238080000000    -0.00846001 
C90      C      0.768100000000     0.760690000000     0.164460000000    -0.00547388 
C91      C      0.638190000000     0.932710000000     0.451410000000    -0.00821836 
C92      C      0.641120000000     0.970740000000     0.493680000000    -0.0085403  
C93      C      0.114170000000     0.600010000000     0.780590000000    -0.00678559 
C94      C      0.102860000000     0.627830000000     0.827360000000    -0.00777301 
C95      C      0.117330000000     0.539910000000     0.283870000000    -0.0076673  
C96      C      0.110110000000     0.500100000000     0.326280000000    -0.00496677 
C97      C      0.990590000000     0.668760000000     0.123350000000    -0.00873912 
C98      C      0.004000000000     0.633030000000     0.115160000000    -0.00943573 
C99      C      0.420890000000     0.231710000000     0.947640000000    -0.0074607  
C100     C      0.417650000000     0.188640000000     0.973300000000    -0.00603337 
C101     C      0.433430000000     0.241700000000     0.451320000000    -0.00701658 
C102     C      0.442280000000     0.288170000000     0.470520000000    -0.00377068 
C103     C      0.502040000000     0.175350000000     0.683760000000    -0.00917318 
C104     C      0.503540000000     0.133180000000     0.666310000000    -0.00874081 
C105     C      0.214340000000     0.538780000000     0.988490000000    -0.00462892 
C106     C      0.230270000000     0.564850000000     0.923030000000    -0.0027216  
C107     C      0.365270000000     0.400800000000     0.745190000000    -0.00832464 
C108     C      0.364930000000     0.357420000000     0.729620000000    -0.00878604 
C109     C      0.529200000000     0.466380000000     0.804580000000    -0.0101786  
C110     C      0.532510000000     0.478490000000     0.730760000000    -0.00646269 
C111     C      0.668930000000     0.554210000000     0.311520000000    -0.00842378 
C112     C      0.673840000000     0.557340000000     0.235640000000    -0.0056021  
C113     C      0.949950000000     0.247470000000     0.989620000000    -0.00605784 
C114     C      0.960180000000     0.270700000000     0.921980000000    -0.00794816 
C115     C      0.871650000000     0.138560000000     0.422750000000    -0.00644407 
C116     C      0.882930000000     0.139070000000     0.496430000000    -0.00836903 
C117     C      0.223330000000     0.488890000000     0.627020000000    -0.00207168 
C118     C      0.222440000000     0.482620000000     0.551510000000    -0.00923874 
C119     C      0.301580000000     0.443100000000     0.120570000000    -0.00760569 
C120     C      0.298950000000     0.424470000000     0.050490000000    -0.0098065  
C121     C      0.102130000000     0.335090000000     0.298790000000    -0.00874119 
C122     C      0.057090000000     0.325560000000     0.270840000000    -0.00928457 
C123     C      0.449910000000     0.466870000000     0.425450000000    -0.00960056 
C124     C      0.399370000000     0.441230000000     0.414550000000    -0.00900699 
C125     C      0.583140000000     0.000980000000     0.809570000000    -0.00957794 
C126     C      0.592050000000     0.019810000000     0.880530000000    -0.00782907 
C127     C      0.493850000000     0.046800000000     0.383750000000    -0.00715829 
C128     C      0.493100000000     0.040370000000     0.308310000000    -0.0065774  
C129     C      0.746470000000     0.119960000000     0.169240000000    -0.00865539 
C130     C      0.697030000000     0.106220000000     0.164280000000    -0.00948746 
C131     C      0.245100000000     0.944790000000     0.619170000000    -0.00572764 
C132     C      0.267960000000     0.956370000000     0.687280000000    -0.00887349 
C133     C      0.142480000000     0.855980000000     0.111060000000    -0.00764569 
C134     C      0.141750000000     0.844430000000     0.184720000000    -0.00761457 
C135     C      0.352480000000     0.925380000000     0.997960000000    -0.00808249 
C136     C      0.394490000000     0.958150000000     0.035960000000    -0.00958196 
C137     C      0.839790000000     0.693130000000     0.908530000000    -0.00721354 
C138     C      0.803240000000     0.675650000000     0.855260000000    -0.00684546 
C139     C      0.920340000000     0.736800000000     0.376450000000    -0.00719653 
C140     C      0.957970000000     0.755340000000     0.428090000000    -0.00695359 
C141     C      0.734390000000     0.563300000000     0.599350000000    -0.00465169 
C142     C      0.756640000000     0.590150000000     0.536220000000     0.000347414
C143     C      0.064850000000     0.817220000000     0.789570000000    -0.00861708 
C144     C      0.020220000000     0.779350000000     0.764340000000    -0.00889631 
H1       H      0.710080000000     0.986630000000     0.801490000000     0.101946   
H2       H      0.859080000000     0.073840000000     0.802030000000     0.102184   
H3       H      0.790510000000     0.011170000000     0.877780000000     0.0429459  
H4       H      0.798900000000     0.998720000000     0.794480000000     0.0437955  
H5       H      0.776890000000     0.070570000000     0.840750000000     0.0430592  
H6       H      0.771520000000     0.053370000000     0.755650000000     0.0439234  
H7       H      0.067950000000     0.413560000000     0.634450000000     0.10132    
H8       H      0.917850000000     0.335410000000     0.625110000000     0.102387   
H9       H      0.985100000000     0.410030000000     0.641480000000     0.0422359  
H10      H      0.989130000000     0.399140000000     0.555370000000     0.0452135  
H11      H      0.004130000000     0.347970000000     0.668990000000     0.0442059  
H12      H      0.996560000000     0.334160000000     0.582460000000     0.0439307  
H13      H      0.211210000000     0.692530000000     0.508730000000     0.102424   
H14      H      0.131750000000     0.758110000000     0.462020000000     0.102252   
H15      H      0.133740000000     0.679630000000     0.430160000000     0.0449673  
H16      H      0.130880000000     0.696230000000     0.513460000000     0.0421252  
H17      H      0.205640000000     0.746930000000     0.410170000000     0.045527   
H18      H      0.212600000000     0.761510000000     0.496530000000     0.0420924  
H19      H      0.603000000000     0.702840000000     0.880680000000     0.102122   
H20      H      0.693750000000     0.654110000000     0.952130000000     0.100777   
H21      H      0.682430000000     0.702530000000     0.874290000000     0.0398452  
H22      H      0.687980000000     0.727960000000     0.954070000000     0.0452802  
H23      H      0.606160000000     0.638270000000     0.913060000000     0.0425634  
H24      H      0.618610000000     0.662810000000     0.994240000000     0.0439759  
H25      H      0.271930000000     0.037320000000     0.336050000000     0.104134   
H26      H      0.425690000000     0.083960000000     0.267480000000     0.0997831  
H27      H      0.348690000000     0.082020000000     0.350570000000     0.0394192  
H28      H      0.355420000000     0.034350000000     0.364230000000     0.0420504  
H29      H      0.330590000000     0.054420000000     0.226550000000     0.0515693  
H30      H      0.353850000000     0.019610000000     0.247950000000     0.0409912  
H31      H      0.570700000000     0.374430000000     0.070690000000     0.104523   
H32      H      0.420690000000     0.333180000000     0.158990000000     0.10234    
H33      H      0.482460000000     0.367950000000     0.048810000000     0.0434089  
H34      H      0.494210000000     0.324730000000     0.073010000000     0.0386125  
H35      H      0.493640000000     0.397010000000     0.160910000000     0.0437093  
H36      H      0.517310000000     0.363560000000     0.188270000000     0.0514777  
H37      H      0.639370000000     0.758680000000     0.518850000000     0.102267   
H38      H      0.752070000000     0.839380000000     0.670890000000     0.102676   
H39      H      0.698270000000     0.766060000000     0.592190000000     0.0374755  
H40      H      0.737900000000     0.817560000000     0.552290000000     0.0473322  
H41      H      0.655240000000     0.801470000000     0.633660000000     0.0469467  
H42      H      0.694940000000     0.853020000000     0.595390000000     0.0440594  
H43      H      0.619910000000     0.859600000000     0.043190000000     0.1032     
H44      H      0.760060000000     0.942600000000     0.169790000000     0.102663   
H45      H      0.656970000000     0.839290000000     0.128800000000     0.046046   
H46      H      0.707570000000     0.863730000000     0.081170000000     0.0512269  
H47      H      0.664090000000     0.910590000000     0.153440000000     0.0439606  
H48      H      0.707950000000     0.938570000000     0.092630000000     0.0386737  
H49      H      0.692120000000     0.735760000000     0.230420000000     0.101976   
H50      H      0.830910000000     0.812470000000     0.126490000000     0.102641   
H51      H      0.790830000000     0.803420000000     0.251630000000     0.0519624  
H52      H      0.768490000000     0.745150000000     0.268460000000     0.044569   
H53      H      0.753160000000     0.776720000000     0.134140000000     0.0362445  
H54      H      0.749340000000     0.724260000000     0.154770000000     0.0438763  
H55      H      0.710480000000     0.966430000000     0.459210000000     0.102142   
H56      H      0.570580000000     0.928270000000     0.515010000000     0.102727   
H57      H      0.621390000000     0.930830000000     0.403420000000     0.0457948  
H58      H      0.617810000000     0.900420000000     0.477440000000     0.0424386  
H59      H      0.657780000000     0.002250000000     0.464720000000     0.0470918  
H60      H      0.661750000000     0.975360000000     0.538540000000     0.0412254  
H61      H      0.054440000000     0.585370000000     0.725550000000     0.10197    
H62      H      0.164050000000     0.673690000000     0.876930000000     0.101426   
H63      H      0.110010000000     0.570160000000     0.807400000000     0.0467201  
H64      H      0.149560000000     0.619750000000     0.764650000000     0.046302   
H65      H      0.067840000000     0.607530000000     0.844670000000     0.0462395  
H66      H      0.106180000000     0.656840000000     0.799000000000     0.0361679  
H67      H      0.054970000000     0.495850000000     0.234120000000     0.102144   
H68      H      0.170200000000     0.514330000000     0.378800000000     0.105773   
H69      H      0.152250000000     0.558080000000     0.265530000000     0.0481975  
H70      H      0.111870000000     0.563220000000     0.314940000000     0.0488126  
H71      H      0.116770000000     0.477710000000     0.294860000000     0.0344095  
H72      H      0.074910000000     0.481470000000     0.343410000000     0.0438732  
H73      H      0.926420000000     0.615990000000     0.158400000000     0.101853   
H74      H      0.072450000000     0.683420000000     0.137570000000     0.101473   
H75      H      0.998350000000     0.688840000000     0.077080000000     0.0470066  
H76      H      0.010060000000     0.691800000000     0.164360000000     0.0388675  
H77      H      0.989550000000     0.614380000000     0.068220000000     0.0479268  
H78      H      0.989970000000     0.608710000000     0.156700000000     0.0399873  
H79      H      0.357570000000     0.200320000000     0.897260000000     0.102529   
H80      H      0.481870000000     0.207160000000     0.014920000000     0.102388   
H81      H      0.456100000000     0.256240000000     0.935550000000     0.0487601  
H82      H      0.409520000000     0.245740000000     0.987750000000     0.041526   
H83      H      0.426240000000     0.173030000000     0.931930000000     0.038043   
H84      H      0.383020000000     0.165330000000     0.989880000000     0.0458926  
H85      H      0.366710000000     0.213080000000     0.412540000000     0.102581   
H86      H      0.505740000000     0.327820000000     0.519570000000     0.0993705  
H87      H      0.420520000000     0.219650000000     0.495520000000     0.0456466  
H88      H      0.465110000000     0.243680000000     0.435670000000     0.048286   
H89      H      0.410160000000     0.286560000000     0.482300000000     0.0460316  
H90      H      0.457960000000     0.310980000000     0.427640000000     0.0407003  
H91      H      0.430640000000     0.137380000000     0.663310000000     0.101115   
H92      H      0.575350000000     0.176170000000     0.654520000000     0.102472   
H93      H      0.523490000000     0.202560000000     0.648780000000     0.0431084  
H94      H      0.515640000000     0.186690000000     0.734580000000     0.0441502  
H95      H      0.482740000000     0.117190000000     0.621550000000     0.0428494  
H96      H      0.489270000000     0.108830000000     0.707760000000     0.0438786  
H97      H      0.145980000000     0.487900000000     0.973170000000     0.103927   
H98      H      0.301470000000     0.606680000000     0.910480000000     0.103043   
H99      H      0.231820000000     0.561430000000     0.030890000000     0.0465804  
H100     H      0.222160000000     0.511420000000     0.988990000000     0.0468009  
H101     H      0.230240000000     0.596730000000     0.928250000000     0.0388678  
H102     H      0.206780000000     0.545210000000     0.882450000000     0.0460376  
H103     H      0.292960000000     0.360470000000     0.751480000000     0.102368   
H104     H      0.435800000000     0.393330000000     0.752680000000     0.0992473  
H105     H      0.380540000000     0.424560000000     0.703230000000     0.0432037  
H106     H      0.385970000000     0.416770000000     0.790050000000     0.0427476  
H107     H      0.352260000000     0.346230000000     0.678350000000     0.0441667  
H108     H      0.342000000000     0.330740000000     0.764220000000     0.0432578  
H109     H      0.595320000000     0.473610000000     0.802170000000     0.106852   
H110     H      0.528330000000     0.415270000000     0.707100000000     0.11167    
H111     H      0.505640000000     0.430300000000     0.811620000000     0.0409745  
H112     H      0.515040000000     0.484480000000     0.831430000000     0.044319   
H113     H      0.560320000000     0.513060000000     0.722970000000     0.0481876  
H114     H      0.501380000000     0.477900000000     0.715640000000     0.0348511  
H115     H      0.642810000000     0.482960000000     0.305830000000     0.105073   
H116     H      0.608340000000     0.551060000000     0.231500000000     0.107039   
H117     H      0.655060000000     0.575130000000     0.329410000000     0.0460366  
H118     H      0.702600000000     0.567970000000     0.333840000000     0.0320081  
H119     H      0.685430000000     0.534640000000     0.217130000000     0.0436959  
H120     H      0.699780000000     0.591720000000     0.222050000000     0.0335934  
H121     H      0.937170000000     0.299130000000     0.026510000000     0.102912   
H122     H      0.896010000000     0.266320000000     0.911580000000     0.106661   
H123     H      0.980810000000     0.249440000000     0.009530000000     0.0370968  
H124     H      0.925080000000     0.211530000000     0.983940000000     0.0493869  
H125     H      0.981050000000     0.260750000000     0.892920000000     0.044831   
H126     H      0.979840000000     0.307290000000     0.929360000000     0.0354057  
H127     H      0.874700000000     0.202330000000     0.437250000000     0.109397   
H128     H      0.820960000000     0.137050000000     0.521020000000     0.10383    
H129     H      0.836690000000     0.112060000000     0.413550000000     0.0385597  
H130     H      0.893430000000     0.130140000000     0.392910000000     0.0431021  
H131     H      0.918340000000     0.164720000000     0.504990000000     0.0481791  
H132     H      0.879060000000     0.106270000000     0.509820000000     0.03588    
H133     H      0.294890000000     0.532450000000     0.624190000000     0.105188   
H134     H      0.219950000000     0.419470000000     0.567980000000     0.106996   
H135     H      0.200260000000     0.456780000000     0.651670000000     0.0469075  
H136     H      0.211000000000     0.512250000000     0.637900000000     0.0272179  
H137     H      0.247780000000     0.513890000000     0.527130000000     0.0475655  
H138     H      0.189410000000     0.475480000000     0.532490000000     0.043908   
H139     H      0.277600000000     0.376070000000     0.158430000000     0.10139    
H140     H      0.362590000000     0.478820000000     0.019980000000     0.101136   
H141     H      0.284020000000     0.462550000000     0.121390000000     0.0477871  
H142     H      0.336890000000     0.466340000000     0.134110000000     0.0407345  
H143     H      0.263930000000     0.407710000000     0.032680000000     0.0481467  
H144     H      0.309950000000     0.399410000000     0.052640000000     0.0357679  
H145     H      0.124710000000     0.405630000000     0.284920000000     0.100234   
H146     H      0.043880000000     0.258630000000     0.248710000000     0.101846   
H147     H      0.116250000000     0.318850000000     0.267150000000     0.0429668  
H148     H      0.097470000000     0.320530000000     0.349410000000     0.0449581  
H149     H      0.062340000000     0.344980000000     0.224410000000     0.0404661  
H150     H      0.040180000000     0.336340000000     0.307160000000     0.0460615  
H151     H      0.447740000000     0.403000000000     0.423320000000     0.102      
H152     H      0.404720000000     0.505540000000     0.394650000000     0.102205   
H153     H      0.458040000000     0.489700000000     0.468600000000     0.0465264  
H154     H      0.466560000000     0.487650000000     0.381020000000     0.0416507  
H155     H      0.382490000000     0.422050000000     0.460130000000     0.0454035  
H156     H      0.390900000000     0.416830000000     0.373480000000     0.0430853  
H157     H      0.645140000000     0.055520000000     0.773760000000     0.101848   
H158     H      0.576150000000     0.954970000000     0.918800000000     0.103814   
H159     H      0.547180000000     0.986260000000     0.797720000000     0.0497284  
H160     H      0.591770000000     0.974210000000     0.806340000000     0.0382028  
H161     H      0.576410000000     0.040780000000     0.887180000000     0.0497708  
H162     H      0.628460000000     0.041530000000     0.888290000000     0.0391281  
H163     H      0.564640000000     0.093880000000     0.378490000000     0.106446   
H164     H      0.500670000000     0.982630000000     0.324940000000     0.106767   
H165     H      0.473260000000     0.014180000000     0.408790000000     0.0458478  
H166     H      0.478620000000     0.067640000000     0.394860000000     0.0338936  
H167     H      0.514720000000     0.072810000000     0.283370000000     0.0460828  
H168     H      0.458620000000     0.028040000000     0.290120000000     0.0327544  
H169     H      0.759120000000     0.186890000000     0.190280000000     0.102754   
H170     H      0.681810000000     0.037850000000     0.178370000000     0.102531   
H171     H      0.757570000000     0.112000000000     0.121930000000     0.0448125  
H172     H      0.751330000000     0.100700000000     0.209330000000     0.0430103  
H173     H      0.691430000000     0.121380000000     0.119240000000     0.0462167  
H174     H      0.687390000000     0.118970000000     0.208190000000     0.0419248  
H175     H      0.299650000000     0.935680000000     0.584800000000     0.102087   
H176     H      0.276870000000     0.899010000000     0.694500000000     0.104745   
H177     H      0.243340000000     0.973910000000     0.599920000000     0.038353   
H178     H      0.210220000000     0.917000000000     0.624100000000     0.0475017  
H179     H      0.253150000000     0.972310000000     0.717950000000     0.0455331  
H180     H      0.303820000000     0.981050000000     0.680360000000     0.0355887  
H181     H      0.154210000000     0.801510000000     0.086720000000     0.103759   
H182     H      0.207030000000     0.850380000000     0.177130000000     0.107764   
H183     H      0.164410000000     0.892450000000     0.104210000000     0.0486033  
H184     H      0.108370000000     0.847580000000     0.095680000000     0.036195   
H185     H      0.119240000000     0.808100000000     0.191600000000     0.0361383  
H186     H      0.127720000000     0.861810000000     0.213770000000     0.0445465  
H187     H      0.334970000000     0.977700000000     0.993620000000     0.102645   
H188     H      0.400020000000     0.901130000000     0.067270000000     0.102478   
H189     H      0.332310000000     0.895260000000     0.028900000000     0.0434803  
H190     H      0.362030000000     0.914260000000     0.952110000000     0.0455559  
H191     H      0.385120000000     0.971570000000     0.079340000000     0.0406635  
H192     H      0.416450000000     0.986580000000     0.003190000000     0.0471183  
H193     H      0.793960000000     0.636700000000     0.969340000000     0.103219   
H194     H      0.804590000000     0.732360000000     0.809020000000     0.10286    
H195     H      0.851380000000     0.728790000000     0.918800000000     0.047752   
H196     H      0.868930000000     0.691150000000     0.889910000000     0.0477716  
H197     H      0.771590000000     0.669450000000     0.878720000000     0.0346971  
H198     H      0.798490000000     0.643800000000     0.834810000000     0.0453389  
H199     H      0.964240000000     0.793480000000     0.314800000000     0.101226   
H200     H      0.958150000000     0.699680000000     0.475380000000     0.102285   
H201     H      0.891220000000     0.738280000000     0.396400000000     0.04758    
H202     H      0.909250000000     0.701230000000     0.366330000000     0.0469868  
H203     H      0.962840000000     0.787410000000     0.447820000000     0.0448625  
H204     H      0.989210000000     0.761440000000     0.403350000000     0.0348516  
H205     H      0.715760000000     0.494120000000     0.586560000000     0.10245    
H206     H      0.755950000000     0.651470000000     0.522150000000     0.104185   
H207     H      0.715630000000     0.577410000000     0.624550000000     0.0512119  
H208     H      0.760440000000     0.565520000000     0.633910000000     0.0426817  
H209     H      0.732410000000     0.578290000000     0.494410000000     0.0407287  
H210     H      0.784760000000     0.584930000000     0.522380000000     0.040644   
H211     H      0.085760000000     0.767700000000     0.796050000000     0.102368   
H212     H      0.004960000000     0.830340000000     0.732170000000     0.101837   
H213     H      0.059300000000     0.833980000000     0.832610000000     0.0441459  
H214     H      0.081310000000     0.842540000000     0.749810000000     0.0417693  
H215     H      0.001430000000     0.756920000000     0.806330000000     0.044012   
H216     H      0.026160000000     0.759070000000     0.727280000000     0.0439475  
N1       N      0.732190000000     0.976820000000     0.819450000000    -0.220918   
N2       N      0.837120000000     0.085660000000     0.792710000000    -0.220862   
N3       N      0.049310000000     0.425700000000     0.610710000000    -0.22073    
N4       N      0.938350000000     0.321840000000     0.634080000000    -0.220431   
N5       N      0.176940000000     0.674390000000     0.499550000000    -0.220984   
N6       N      0.165010000000     0.771760000000     0.447460000000    -0.22082    
N7       N      0.636640000000     0.724230000000     0.891640000000    -0.220982   
N8       N      0.659520000000     0.637390000000     0.961860000000    -0.221029   
N9       N      0.290150000000     0.020760000000     0.337890000000    -0.222048   
N10      N      0.399250000000     0.088680000000     0.253770000000    -0.220847   
N11      N      0.550300000000     0.388650000000     0.068860000000    -0.222802   
N12      N      0.447450000000     0.328470000000     0.170550000000    -0.221602   
N13      N      0.672180000000     0.784150000000     0.511350000000    -0.221066   
N14      N      0.719910000000     0.834360000000     0.677020000000    -0.220806   
N15      N      0.651310000000     0.863070000000     0.035430000000    -0.221252   
N16      N      0.727020000000     0.918700000000     0.179940000000    -0.222006   
N17      N      0.719710000000     0.763410000000     0.251240000000    -0.220817   
N18      N      0.814930000000     0.780100000000     0.145490000000    -0.221748   
N19      N      0.682510000000     0.939000000000     0.438650000000    -0.221523   
N20      N      0.596920000000     0.961150000000     0.515400000000    -0.221141   
N21      N      0.084680000000     0.585610000000     0.722490000000    -0.220712   
N22      N      0.133820000000     0.644160000000     0.883560000000    -0.220903   
N23      N      0.085750000000     0.524900000000     0.228220000000    -0.220362   
N24      N      0.140430000000     0.514880000000     0.383330000000    -0.221863   
N25      N      0.943140000000     0.648420000000     0.139510000000    -0.220659   
N26      N      0.052490000000     0.652250000000     0.115720000000    -0.220112   
N27      N      0.391640000000     0.221920000000     0.889970000000    -0.221024   
N28      N      0.449320000000     0.198690000000     0.027630000000    -0.221945   
N29      N      0.399520000000     0.223090000000     0.399030000000    -0.221386   
N30      N      0.472130000000     0.304940000000     0.528050000000    -0.219718   
N31      N      0.456620000000     0.168000000000     0.679840000000    -0.221327   
N32      N      0.549190000000     0.143230000000     0.652710000000    -0.221154   
N33      N      0.166060000000     0.519370000000     0.994010000000    -0.221708   
N34      N      0.275110000000     0.574050000000     0.905750000000    -0.222411   
N35      N      0.320130000000     0.392610000000     0.757190000000    -0.221129   
N36      N      0.409440000000     0.362900000000     0.736500000000    -0.22131    
N37      N      0.572760000000     0.477300000000     0.832190000000    -0.218792   
N38      N      0.537900000000     0.447000000000     0.688760000000    -0.220889   
N39      N      0.641610000000     0.507890000000     0.333410000000    -0.218369   
N40      N      0.631970000000     0.547640000000     0.203730000000    -0.218995   
N41      N      0.934000000000     0.268200000000     0.037490000000    -0.220043   
N42      N      0.918590000000     0.259370000000     0.887540000000    -0.219617   
N43      N      0.877120000000     0.181550000000     0.401880000000    -0.219962   
N44      N      0.853090000000     0.147110000000     0.538270000000    -0.220201   
N45      N      0.268820000000     0.508320000000     0.652850000000    -0.219614   
N46      N      0.228880000000     0.445220000000     0.533660000000    -0.217653   
N47      N      0.282570000000     0.407560000000     0.170460000000    -0.221045   
N48      N      0.329190000000     0.460100000000     0.005670000000    -0.22086    
N49      N      0.134080000000     0.382920000000     0.301560000000    -0.220758   
N50      N      0.029000000000     0.278200000000     0.255220000000    -0.221032   
N51      N      0.467290000000     0.436520000000     0.436410000000    -0.220103   
N52      N      0.382480000000     0.471320000000     0.398120000000    -0.220218   
N53      N      0.611350000000     0.035800000000     0.762130000000    -0.220493   
N54      N      0.575760000000     0.984170000000     0.930260000000    -0.220827   
N55      N      0.539680000000     0.069780000000     0.408730000000    -0.21833    
N56      N      0.506420000000     0.007650000000     0.290720000000    -0.21827    
N57      N      0.774230000000     0.167540000000     0.183680000000    -0.220309   
N58      N      0.668700000000     0.057690000000     0.162480000000    -0.220219   
N59      N      0.269250000000     0.932950000000     0.571160000000    -0.21975    
N60      N      0.263830000000     0.916460000000     0.719300000000    -0.218887   
N61      N      0.157130000000     0.831190000000     0.068960000000    -0.219779   
N62      N      0.186450000000     0.856370000000     0.208300000000    -0.219123   
N63      N      0.324940000000     0.944920000000     0.980070000000    -0.220952   
N64      N      0.417970000000     0.935610000000     0.060260000000    -0.220886   
N65      N      0.823590000000     0.667350000000     0.970240000000    -0.220664   
N66      N      0.814820000000     0.708890000000     0.802750000000    -0.221495   
N67      N      0.935140000000     0.762370000000     0.314450000000    -0.220833   
N68      N      0.947780000000     0.723050000000     0.481560000000    -0.221594   
N69      N      0.704210000000     0.516650000000     0.581990000000    -0.222307   
N70      N      0.772710000000     0.637520000000     0.546550000000    -0.222664   
N71      N      0.094410000000     0.800290000000     0.808740000000    -0.221192   
N72      N      0.993250000000     0.796110000000     0.733320000000    -0.220942   
Ni1      Ni     0.884700000000     0.685130000000     0.660510000000     1.00677    
Ni2      Ni     0.879070000000     0.747710000000     0.624570000000     1.00674    
Ni3      Ni     0.216750000000     0.843130000000     0.889430000000     1.01335    
Ni4      Ni     0.202710000000     0.903640000000     0.897940000000     1.00305    
Ni5      Ni     0.540100000000     0.962590000000     0.125770000000     1.01173    
Ni6      Ni     0.546430000000     0.032190000000     0.096720000000     0.999802   
Ni7      Ni     0.249160000000     0.390560000000     0.366930000000     1.00815    
Ni8      Ni     0.266440000000     0.464260000000     0.338520000000     1.002      
Ni9      Ni     0.901180000000     0.189650000000     0.202660000000     1.00895    
Ni10     Ni     0.902510000000     0.256620000000     0.234120000000     1.00727    
Ni11     Ni     0.580300000000     0.439840000000     0.502590000000     1.0008     
Ni12     Ni     0.591590000000     0.513150000000     0.514970000000     1.01042    
Ni13     Ni     0.335910000000     0.511330000000     0.821250000000     1.00955    
Ni14     Ni     0.259790000000     0.456290000000     0.838360000000     1.00419    
Ni15     Ni     0.469470000000     0.287780000000     0.729050000000     1.00671    
Ni16     Ni     0.395080000000     0.241900000000     0.690090000000     1.00766    
Ni17     Ni     0.144360000000     0.614400000000     0.076440000000     1.00102    
Ni18     Ni     0.074370000000     0.556410000000     0.036780000000     1.00955    
Ni19     Ni     0.738960000000     0.871160000000     0.359740000000     1.00674    
Ni20     Ni     0.662000000000     0.830660000000     0.330440000000     1.00663    
Ni21     Ni     0.909770000000     0.745290000000     0.115720000000     1.00515    
Ni22     Ni     0.848720000000     0.683660000000     0.169410000000     1.00187    
Ni23     Ni     0.611540000000     0.080270000000     0.574900000000     1.01466    
Ni24     Ni     0.536480000000     0.024400000000     0.597580000000     1.00277    
Ni25     Ni     0.385270000000     0.194810000000     0.200860000000     1.00443    
Ni26     Ni     0.461990000000     0.223130000000     0.226450000000     1.00623    
Ni27     Ni     0.569110000000     0.511870000000     0.024690000000     1.0098     
Ni28     Ni     0.638840000000     0.514750000000     0.010320000000     1.00447    
Ni29     Ni     0.195060000000     0.897840000000     0.400500000000     1.00808    
Ni30     Ni     0.260390000000     0.893410000000     0.378620000000     1.00388    
Ni31     Ni     0.079070000000     0.545640000000     0.530630000000     1.00596    
Ni32     Ni     0.146330000000     0.553850000000     0.576300000000     1.00107    
Ni33     Ni     0.851320000000     0.201450000000     0.716560000000     1.00375    
Ni34     Ni     0.921870000000     0.205320000000     0.708830000000     1.01377    
Ni35     Ni     0.649970000000     0.842990000000     0.835190000000     1.00449    
Ni36     Ni     0.721050000000     0.858280000000     0.875240000000     1.00836    
O1       O      0.917550000000     0.691300000000     0.580930000000    -0.455718   
O2       O      0.851310000000     0.683010000000     0.737960000000    -0.45324    
O3       O      0.830590000000     0.648260000000     0.613210000000    -0.456411   
O4       O      0.938740000000     0.726210000000     0.704610000000    -0.454736   
O5       O      0.933710000000     0.784740000000     0.670900000000    -0.454384   
O6       O      0.824830000000     0.706600000000     0.580760000000    -0.455521   
O7       O      0.846500000000     0.741700000000     0.704490000000    -0.454339   
O8       O      0.911930000000     0.749400000000     0.546740000000    -0.452941   
O9       O      0.189580000000     0.823930000000     0.975140000000    -0.453579   
O10      O      0.242990000000     0.866510000000     0.804150000000    -0.453653   
O11      O      0.272780000000     0.880400000000     0.931370000000    -0.456238   
O12      O      0.159690000000     0.809600000000     0.848480000000    -0.457448   
O13      O      0.146240000000     0.865890000000     0.856220000000    -0.452092   
O14      O      0.260240000000     0.937290000000     0.938830000000    -0.452298   
O15      O      0.229440000000     0.922670000000     0.812270000000    -0.454995   
O16      O      0.177000000000     0.880760000000     0.983300000000    -0.45388    
O17      O      0.524830000000     0.971440000000     0.213930000000    -0.453502   
O18      O      0.555470000000     0.958240000000     0.035670000000    -0.454491   
O19      O      0.601950000000     0.994650000000     0.148790000000    -0.455146   
O20      O      0.478800000000     0.935060000000     0.100600000000    -0.456186   
O21      O      0.484960000000     0.999790000000     0.070900000000    -0.451188   
O22      O      0.607530000000     0.059930000000     0.124710000000    -0.450381   
O23      O      0.563540000000     0.024250000000     0.009350000000    -0.452121   
O24      O      0.528460000000     0.035270000000     0.185740000000    -0.451913   
O25      O      0.237780000000     0.402750000000     0.455690000000    -0.45293    
O26      O      0.261430000000     0.383270000000     0.276380000000    -0.45481    
O27      O      0.310750000000     0.414380000000     0.388470000000    -0.452982   
O28      O      0.188860000000     0.371460000000     0.342820000000    -0.454375   
O29      O      0.205040000000     0.440080000000     0.314700000000    -0.454253   
O30      O      0.326740000000     0.483500000000     0.364390000000    -0.452163   
O31      O      0.279250000000     0.452670000000     0.250390000000    -0.452061   
O32      O      0.252060000000     0.470830000000     0.428180000000    -0.452452   
O33      O      0.915650000000     0.213310000000     0.114370000000    -0.454438   
O34      O      0.887610000000     0.170740000000     0.293020000000    -0.455764   
O35      O      0.838800000000     0.164780000000     0.184720000000    -0.45197    
O36      O      0.963350000000     0.218770000000     0.223320000000    -0.455837   
O37      O      0.964980000000     0.281770000000     0.250850000000    -0.453059   
O38      O      0.840040000000     0.227180000000     0.214970000000    -0.453395   
O39      O      0.889820000000     0.233620000000     0.323090000000    -0.453963   
O40      O      0.915370000000     0.275180000000     0.143280000000    -0.454801   
O41      O      0.605290000000     0.457040000000     0.415110000000    -0.452663   
O42      O      0.556510000000     0.427640000000     0.590980000000    -0.449933   
O43      O      0.522340000000     0.422680000000     0.467780000000    -0.452485   
O44      O      0.638930000000     0.461910000000     0.538670000000    -0.452349   
O45      O      0.648570000000     0.529940000000     0.551700000000    -0.457332   
O46      O      0.533610000000     0.491540000000     0.477310000000    -0.454018   
O47      O      0.565670000000     0.495630000000     0.601640000000    -0.454406   
O48      O      0.617620000000     0.526060000000     0.427970000000    -0.454257   
O49      O      0.318900000000     0.520860000000     0.734800000000    -0.454593   
O50      O      0.348020000000     0.498230000000     0.908440000000    -0.457023   
O51      O      0.344530000000     0.464860000000     0.785990000000    -0.453553   
O52      O      0.322200000000     0.553990000000     0.858510000000    -0.453579   
O53      O      0.251280000000     0.502320000000     0.874910000000    -0.456929   
O54      O      0.273090000000     0.413830000000     0.800140000000    -0.456292   
O55      O      0.277260000000     0.446000000000     0.924440000000    -0.451598   
O56      O      0.247630000000     0.470300000000     0.751400000000    -0.452241   
O57      O      0.447380000000     0.265290000000     0.816690000000    -0.45139    
O58      O      0.486390000000     0.306790000000     0.638890000000    -0.450601   
O59      O      0.455520000000     0.334120000000     0.741260000000    -0.459435   
O60      O      0.478830000000     0.238760000000     0.713570000000    -0.455852   
O61      O      0.409080000000     0.195340000000     0.678720000000    -0.455498   
O62      O      0.386140000000     0.291460000000     0.704410000000    -0.453706   
O63      O      0.417040000000     0.263360000000     0.602550000000    -0.456045   
O64      O      0.377880000000     0.223420000000     0.779990000000    -0.456063   
O65      O      0.153580000000     0.641370000000     0.990450000000    -0.453737   
O66      O      0.130630000000     0.583240000000     0.159960000000    -0.450027   
O67      O      0.170070000000     0.580110000000     0.045000000000    -0.453776   
O68      O      0.114010000000     0.645170000000     0.104360000000    -0.451916   
O69      O      0.048750000000     0.590980000000     0.067090000000    -0.453925   
O70      O      0.104490000000     0.525510000000     0.009440000000    -0.456256   
O71      O      0.065020000000     0.529610000000     0.122810000000    -0.454874   
O72      O      0.088440000000     0.587050000000     0.953050000000    -0.45303    
O73      O      0.749420000000     0.902930000000     0.277560000000    -0.453882   
O74      O      0.722920000000     0.836850000000     0.440460000000    -0.45172    
O75      O      0.745600000000     0.826260000000     0.314560000000    -0.454482   
O76      O      0.727660000000     0.913640000000     0.402420000000    -0.457545   
O77      O      0.655400000000     0.875170000000     0.377400000000    -0.452782   
O78      O      0.673950000000     0.788800000000     0.286040000000    -0.454064   
O79      O      0.651460000000     0.797960000000     0.411260000000    -0.456356   
O80      O      0.677360000000     0.865950000000     0.251240000000    -0.456199   
O81      O      0.933960000000     0.767320000000     0.202010000000    -0.455504   
O82      O      0.881270000000     0.719480000000     0.032660000000    -0.45184    
O83      O      0.876430000000     0.775580000000     0.120720000000    -0.454678   
O84      O      0.939300000000     0.710870000000     0.114920000000    -0.451205   
O85      O      0.881710000000     0.653120000000     0.163700000000    -0.455206   
O86      O      0.819390000000     0.718170000000     0.171030000000    -0.452712   
O87      O      0.824270000000     0.661970000000     0.082890000000    -0.452235   
O88      O      0.877610000000     0.709360000000     0.252520000000    -0.450995   
O89      O      0.626560000000     0.070490000000     0.662190000000    -0.457371   
O90      O      0.591840000000     0.086580000000     0.488800000000    -0.455959   
O91      O      0.597200000000     0.122930000000     0.610120000000    -0.454574   
O92      O      0.620660000000     0.033720000000     0.541450000000    -0.453862   
O93      O      0.550420000000     0.981740000000     0.562100000000    -0.456371   
O94      O      0.527080000000     0.070640000000     0.630870000000    -0.455131   
O95      O      0.521650000000     0.034710000000     0.509850000000    -0.451467   
O96      O      0.556750000000     0.017910000000     0.683850000000    -0.449545   
O97      O      0.400030000000     0.190190000000     0.110090000000    -0.452287   
O98      O      0.376030000000     0.201860000000     0.292900000000    -0.454639   
O99      O      0.399150000000     0.254680000000     0.184510000000    -0.45603    
O100     O      0.376110000000     0.136710000000     0.219660000000    -0.453964   
O101     O      0.447560000000     0.163110000000     0.244850000000    -0.453367   
O102     O      0.471190000000     0.281000000000     0.205210000000    -0.453499   
O103     O      0.447910000000     0.229720000000     0.316480000000    -0.453901   
O104     O      0.471230000000     0.214950000000     0.135130000000    -0.456679   
O105     O      0.585920000000     0.529570000000     0.114850000000    -0.457712   
O106     O      0.556300000000     0.494090000000     0.934040000000    -0.457706   
O107     O      0.544720000000     0.450740000000     0.050160000000    -0.453512   
O108     O      0.598520000000     0.573170000000     0.997460000000    -0.451743   
O109     O      0.663700000000     0.575740000000     0.985690000000    -0.457173   
O110     O      0.609890000000     0.453640000000     0.036100000000    -0.457021   
O111     O      0.621500000000     0.497290000000     0.919220000000    -0.45       
O112     O      0.650930000000     0.531900000000     0.102270000000    -0.449461   
O113     O      0.217640000000     0.916510000000     0.488990000000    -0.451912   
O114     O      0.176840000000     0.878630000000     0.310970000000    -0.453678   
O115     O      0.166730000000     0.837030000000     0.428100000000    -0.456061   
O116     O      0.227510000000     0.958350000000     0.371000000000    -0.455924   
O117     O      0.289150000000     0.954910000000     0.353110000000    -0.45257    
O118     O      0.227390000000     0.832430000000     0.406690000000    -0.45159    
O119     O      0.238500000000     0.875920000000     0.289710000000    -0.454087   
O120     O      0.277960000000     0.911090000000     0.468640000000    -0.456136   
O121     O      0.067680000000     0.562920000000     0.615350000000    -0.455487   
O122     O      0.094790000000     0.528780000000     0.448680000000    -0.454325   
O123     O      0.049900000000     0.484900000000     0.559740000000    -0.452366   
O124     O      0.112720000000     0.607090000000     0.505210000000    -0.452726   
O125     O      0.175540000000     0.614400000000     0.547200000000    -0.455131   
O126     O      0.112810000000     0.492590000000     0.602040000000    -0.45726    
O127     O      0.157630000000     0.536500000000     0.491220000000    -0.455054   
O128     O      0.130550000000     0.570990000000     0.658390000000    -0.449792   
O129     O      0.837570000000     0.174180000000     0.630790000000    -0.456319   
O130     O      0.869540000000     0.229020000000     0.802090000000    -0.454376   
O131     O      0.878620000000     0.259280000000     0.675640000000    -0.450664   
O132     O      0.829010000000     0.143790000000     0.756480000000    -0.449919   
O133     O      0.895150000000     0.147950000000     0.749410000000    -0.458056   
O134     O      0.944420000000     0.262660000000     0.669370000000    -0.456759   
O135     O      0.935200000000     0.232220000000     0.794990000000    -0.456079   
O136     O      0.903510000000     0.177990000000     0.622990000000    -0.453953   
O137     O      0.636040000000     0.851130000000     0.924700000000    -0.451765   
O138     O      0.669020000000     0.835770000000     0.748430000000    -0.449829   
O139     O      0.628820000000     0.781600000000     0.853990000000    -0.455735   
O140     O      0.675350000000     0.905350000000     0.819460000000    -0.455823   
O141     O      0.741870000000     0.919880000000     0.856590000000    -0.452181   
O142     O      0.695220000000     0.795630000000     0.890930000000    -0.452843   
O143     O      0.735370000000     0.850390000000     0.786450000000    -0.456574   
O144     O      0.702290000000     0.864890000000     0.961710000000    -0.456677   


