data_structure

_audit_creation_method RASPA-1.0
_audit_creation_date 2023-6-5
_audit_author_name 'Poobodin Mano'

_cell_length_a    34.7521
_cell_length_b    34.8382
_cell_length_c    41.373
_cell_angle_alpha 89.9804
_cell_angle_beta  90.0196
_cell_angle_gamma 119.982
_cell_volume      43387.3

_symmetry_cell_setting          triclinic
_symmetry_space_group_name_Hall 'P 1'
_symmetry_space_group_name_H-M  'P 1'
_symmetry_Int_Tables_number     1

_symmetry_equiv_pos_as_xyz 'x,y,z'

loop_
_atom_site_label
_atom_site_type_symbol
_atom_site_fract_x
_atom_site_fract_y
_atom_site_fract_z
_atom_site_charge
C1       C      0.858210000000     0.668420000000     0.252090000000     0.481018   
C2       C      0.818310000000     0.669800000000     0.369750000000     0.476164   
C3       C      0.758140000000     0.634020000000     0.293620000000     0.472436   
C4       C      0.919690000000     0.705150000000     0.328470000000     0.473789   
C5       C      0.193530000000     0.853780000000     0.336400000000     0.475256   
C6       C      0.151740000000     0.815230000000     0.454270000000     0.474944   
C7       C      0.091620000000     0.789060000000     0.377730000000     0.478401   
C8       C      0.253100000000     0.879460000000     0.413050000000     0.473841   
C9       C      0.523700000000     0.998450000000     0.419870000000     0.478634   
C10      C      0.486860000000     0.004120000000     0.037820000000     0.473871   
C11      C      0.424820000000     0.966950000000     0.462560000000     0.476719   
C12      C      0.587190000000     0.036310000000     0.994680000000     0.474218   
C13      C      0.150060000000     0.337170000000     0.204270000000     0.480171   
C14      C      0.190900000000     0.337770000000     0.086610000000     0.475867   
C15      C      0.250830000000     0.375060000000     0.162370000000     0.472194   
C16      C      0.088650000000     0.297820000000     0.128320000000     0.474078   
C17      C      0.859780000000     0.185280000000     0.998320000000     0.481617   
C18      C      0.815960000000     0.141940000000     0.115040000000     0.472221   
C19      C      0.760180000000     0.118740000000     0.035760000000     0.47928    
C20      C      0.918050000000     0.207670000000     0.077520000000     0.478168   
C21      C      0.527830000000     0.524520000000     0.168100000000     0.480429   
C22      C      0.482740000000     0.487760000000     0.285550000000     0.476458   
C23      C      0.424400000000     0.461150000000     0.208760000000     0.478246   
C24      C      0.585860000000     0.550830000000     0.244950000000     0.477396   
C25      C      0.153200000000     0.341380000000     0.336770000000     0.476484   
C26      C      0.192040000000     0.336280000000     0.454240000000     0.481527   
C27      C      0.210380000000     0.296050000000     0.376930000000     0.48274    
C28      C      0.134290000000     0.380980000000     0.413040000000     0.481065   
C29      C      0.337780000000     0.150300000000     0.370950000000     0.475237   
C30      C      0.332480000000     0.186840000000     0.252860000000     0.474883   
C31      C      0.295670000000     0.209550000000     0.328830000000     0.477344   
C32      C      0.375380000000     0.127580000000     0.295070000000     0.476893   
C33      C      0.000450000000     0.522170000000     0.419690000000     0.47698    
C34      C      0.010690000000     0.487480000000     0.037310000000     0.477699   
C35      C      0.046440000000     0.465580000000     0.460500000000     0.476304   
C36      C      0.963730000000     0.543630000000     0.997120000000     0.480784   
C37      C      0.667010000000     0.856770000000     0.084310000000     0.478802   
C38      C      0.673220000000     0.818600000000     0.201920000000     0.474602   
C39      C      0.711190000000     0.798290000000     0.124640000000     0.481496   
C40      C      0.629430000000     0.877500000000     0.160650000000     0.475274   
C41      C      0.854640000000     0.666320000000     0.119470000000     0.476919   
C42      C      0.818770000000     0.675120000000     0.001880000000     0.480843   
C43      C      0.796180000000     0.710580000000     0.078060000000     0.475708   
C44      C      0.877800000000     0.630860000000     0.043150000000     0.476481   
C45      C      0.519910000000     0.995490000000     0.287180000000     0.47473    
C46      C      0.484480000000     0.008940000000     0.170090000000     0.478524   
C47      C      0.463480000000     0.043030000000     0.248400000000     0.481096   
C48      C      0.541060000000     0.961150000000     0.208660000000     0.481357   
C49      C      0.331480000000     0.147240000000     0.003380000000     0.478939   
C50      C      0.335470000000     0.191840000000     0.120600000000     0.478567   
C51      C      0.368000000000     0.249840000000     0.043870000000     0.47714    
C52      C      0.298520000000     0.089230000000     0.080140000000     0.472184   
C53      C      0.520840000000     0.522420000000     0.035920000000     0.47594    
C54      C      0.479880000000     0.482790000000     0.418180000000     0.481558   
C55      C      0.454900000000     0.421230000000     0.994500000000     0.474011   
C56      C      0.545710000000     0.582610000000     0.460050000000     0.478215   
C57      C      0.193680000000     0.858720000000     0.204040000000     0.47912    
C58      C      0.154980000000     0.813300000000     0.086730000000     0.479555   
C59      C      0.132200000000     0.755840000000     0.163880000000     0.472573   
C60      C      0.217370000000     0.916820000000     0.127540000000     0.477235   
C61      C      0.006870000000     0.522700000000     0.287650000000     0.481841   
C62      C      0.009360000000     0.484470000000     0.169810000000     0.481865   
C63      C      0.968810000000     0.420940000000     0.244220000000     0.47814    
C64      C      0.047620000000     0.584250000000     0.213160000000     0.477471   
C65      C      0.854430000000     0.188860000000     0.365580000000     0.471738   
C66      C      0.819400000000     0.142720000000     0.247790000000     0.477251   
C67      C      0.796480000000     0.086570000000     0.326150000000     0.478493   
C68      C      0.879180000000     0.246770000000     0.288130000000     0.473377   
C69      C      0.672340000000     0.855990000000     0.451920000000     0.47457    
C70      C      0.668290000000     0.812690000000     0.334280000000     0.478165   
C71      C      0.632230000000     0.754020000000     0.410820000000     0.472892   
C72      C      0.708940000000     0.915180000000     0.375440000000     0.474173   
C73      C      0.707580000000     0.978340000000     0.354090000000     0.027378   
C74      C      0.775850000000     0.981330000000     0.363130000000    -0.00267806 
C75      C      0.730190000000     0.021460000000     0.341630000000     0.0298036  
C76      C      0.799050000000     0.024840000000     0.351220000000     0.106916   
C77      C      0.849350000000     0.048450000000     0.353660000000    -0.190151   
C78      C      0.880220000000     0.313030000000     0.272240000000     0.0262853  
C79      C      0.945980000000     0.309470000000     0.269740000000    -0.00226491 
C80      C      0.903030000000     0.356370000000     0.260550000000     0.0293991  
C81      C      0.969390000000     0.353060000000     0.257620000000     0.109742   
C82      C      0.017580000000     0.370690000000     0.248380000000    -0.19442    
C83      C      0.066210000000     0.690520000000     0.181100000000     0.0274473  
C84      C      0.135590000000     0.694540000000     0.185250000000    -0.00256604 
C85      C      0.045580000000     0.647470000000     0.193770000000     0.028881   
C86      C      0.115740000000     0.652330000000     0.199470000000     0.103264   
C87      C      0.147130000000     0.636600000000     0.210820000000    -0.186822   
C88      C      0.566720000000     0.688660000000     0.427170000000     0.0248734  
C89      C      0.635680000000     0.691570000000     0.430880000000    -0.00332909 
C90      C      0.545770000000     0.646250000000     0.440370000000     0.0285546  
C91      C      0.614930000000     0.648620000000     0.444360000000     0.110438   
C92      C      0.644770000000     0.630590000000     0.454490000000    -0.196663   
C93      C      0.234550000000     0.022150000000     0.095950000000     0.0252072  
C94      C      0.304840000000     0.028020000000     0.099570000000    -0.00341869 
C95      C      0.214910000000     0.979450000000     0.108520000000     0.0284523  
C96      C      0.285380000000     0.984670000000     0.112340000000     0.109212   
C97      C      0.316540000000     0.967990000000     0.121890000000    -0.196032   
C98      C      0.453310000000     0.355000000000     0.010170000000     0.0262057  
C99      C      0.388160000000     0.359380000000     0.014750000000    -0.00272249 
C100     C      0.431450000000     0.312700000000     0.023350000000     0.02897    
C101     C      0.365360000000     0.316200000000     0.028020000000     0.109859   
C102     C      0.317560000000     0.298500000000     0.038180000000    -0.197295   
C103     C      0.710770000000     0.832950000000     0.252330000000     0.0260841  
C104     C      0.633750000000     0.782750000000     0.249830000000    -0.00466301 
C105     C      0.709270000000     0.829600000000     0.285950000000     0.0309039  
C106     C      0.631550000000     0.780670000000     0.283790000000     0.109511   
C107     C      0.587260000000     0.749810000000     0.299380000000    -0.196791   
C108     C      0.709520000000     0.880150000000     0.002380000000     0.0269221  
C109     C      0.631980000000     0.850380000000     0.999780000000    -0.00288593 
C110     C      0.707840000000     0.881930000000     0.035990000000     0.0320986  
C111     C      0.629660000000     0.850150000000     0.033740000000     0.111279   
C112     C      0.584890000000     0.834760000000     0.049270000000    -0.196887   
C113     C      0.731270000000     0.709920000000     0.097460000000     0.0270608  
C114     C      0.797890000000     0.777680000000     0.091230000000    -0.00318564 
C115     C      0.710510000000     0.732520000000     0.109260000000     0.0302894  
C116     C      0.777370000000     0.800980000000     0.102670000000     0.107338   
C117     C      0.805070000000     0.851180000000     0.102130000000    -0.190909   
C118     C      0.629710000000     0.941690000000     0.180770000000     0.0273838  
C119     C      0.561880000000     0.875330000000     0.173870000000    -0.00324535 
C120     C      0.606960000000     0.962060000000     0.192950000000     0.0304871  
C121     C      0.538400000000     0.895500000000     0.185730000000     0.107069   
C122     C      0.488100000000     0.867760000000     0.185280000000    -0.190978   
C123     C      0.963100000000     0.504810000000     0.369100000000     0.0257662  
C124     C      0.039720000000     0.556840000000     0.371600000000    -0.00429756 
C125     C      0.965000000000     0.506550000000     0.335440000000     0.0309065  
C126     C      0.042390000000     0.557280000000     0.337720000000     0.109408   
C127     C      0.086610000000     0.588290000000     0.322060000000    -0.19588    
C128     C      0.973400000000     0.455170000000     0.086470000000     0.0263325  
C129     C      0.051010000000     0.502740000000     0.086410000000    -0.0012672  
C130     C      0.973390000000     0.455790000000     0.120140000000     0.0310731  
C131     C      0.051820000000     0.501600000000     0.120370000000     0.107702   
C132     C      0.096330000000     0.528940000000     0.136900000000    -0.19383    
C133     C      0.943040000000     0.631670000000     0.024290000000     0.0276974  
C134     C      0.876200000000     0.563910000000     0.029500000000    -0.00241236 
C135     C      0.964010000000     0.609200000000     0.012640000000     0.0303362  
C136     C      0.896910000000     0.540720000000     0.018160000000     0.107753   
C137     C      0.868890000000     0.490540000000     0.517830000000    -0.191179   
C138     C      0.374670000000     0.165510000000     0.421630000000     0.0261361  
C139     C      0.297520000000     0.115950000000     0.418920000000    -0.00379135 
C140     C      0.372730000000     0.163040000000     0.455250000000     0.0304677  
C141     C      0.294900000000     0.114680000000     0.452870000000     0.10955    
C142     C      0.250320000000     0.084460000000     0.468310000000    -0.196699   
C143     C      0.294180000000     0.172140000000     0.202800000000     0.0260556  
C144     C      0.371140000000     0.222770000000     0.204710000000    -0.00466566 
C145     C      0.295120000000     0.175250000000     0.169200000000     0.0302505  
C146     C      0.372750000000     0.224830000000     0.170750000000     0.109067   
C147     C      0.416630000000     0.256210000000     0.154850000000    -0.196194   
C148     C      0.374810000000     0.062930000000     0.275570000000     0.0276149  
C149     C      0.442750000000     0.129200000000     0.282410000000    -0.00257499 
C150     C      0.397530000000     0.042320000000     0.263760000000     0.0300597  
C151     C      0.466170000000     0.108820000000     0.270930000000     0.106993   
C152     C      0.516490000000     0.136440000000     0.271570000000    -0.19114    
C153     C      0.046780000000     0.400470000000     0.443570000000     0.0282076  
C154     C      0.112880000000     0.469350000000     0.441820000000    -0.00204174 
C155     C      0.069310000000     0.379920000000     0.431390000000     0.0301763  
C156     C      0.135880000000     0.449330000000     0.428710000000     0.105331   
C157     C      0.184370000000     0.479910000000     0.420290000000    -0.189539   
C158     C      0.297270000000     0.274650000000     0.348180000000     0.0278365  
C159     C      0.228930000000     0.208290000000     0.343240000000    -0.00250418 
C160     C      0.275330000000     0.295730000000     0.360470000000     0.0308607  
C161     C      0.206250000000     0.229130000000     0.355370000000     0.107835   
C162     C      0.155940000000     0.201620000000     0.356270000000    -0.191574   
C163     C      0.488340000000     0.455490000000     0.334590000000     0.026533   
C164     C      0.456570000000     0.501430000000     0.334730000000    -0.0019714  
C165     C      0.488440000000     0.455440000000     0.368260000000     0.031209   
C166     C      0.454280000000     0.499770000000     0.368670000000     0.107195   
C167     C      0.435630000000     0.525820000000     0.385170000000    -0.192882   
C168     C      0.510020000000     0.548490000000     0.086100000000     0.0264866  
C169     C      0.555450000000     0.516110000000     0.083650000000    -0.00381478 
C170     C      0.513580000000     0.550410000000     0.119620000000     0.0308297  
C171     C      0.557910000000     0.516390000000     0.117600000000     0.109821   
C172     C      0.586690000000     0.500300000000     0.133140000000    -0.196063   
C173     C      0.890350000000     0.187180000000     0.414110000000     0.0246771  
C174     C      0.832870000000     0.204430000000     0.416330000000    -0.00642717 
C175     C      0.890270000000     0.184710000000     0.447760000000     0.0321613  
C176     C      0.833070000000     0.203170000000     0.450370000000     0.114757   
C177     C      0.792850000000     0.201080000000     0.967360000000    -0.231301   
C178     C      0.790140000000     0.153410000000     0.165270000000     0.0266549  
C179     C      0.826740000000     0.111940000000     0.163700000000    -0.0042329  
C180     C      0.790200000000     0.152260000000     0.198950000000     0.0308311  
C181     C      0.828450000000     0.111980000000     0.197740000000     0.109188   
C182     C      0.848080000000     0.086630000000     0.213780000000    -0.195983   
C183     C      0.121830000000     0.302130000000     0.288040000000     0.0261027  
C184     C      0.166090000000     0.379960000000     0.287260000000    -0.00174595 
C185     C      0.122730000000     0.301430000000     0.254340000000     0.0300487  
C186     C      0.165040000000     0.379990000000     0.253330000000     0.106148   
C187     C      0.190320000000     0.424510000000     0.236530000000    -0.192525   
C188     C      0.181350000000     0.298510000000     0.037610000000     0.0253244  
C189     C      0.220460000000     0.376560000000     0.037700000000    -0.00193943 
C190     C      0.180570000000     0.298690000000     0.003880000000     0.0309756  
C191     C      0.222510000000     0.377250000000     0.003800000000     0.107487   
C192     C      0.245920000000     0.422280000000     0.987590000000    -0.192864   
C193     C      0.024680000000     0.297990000000     0.106840000000     0.0279968  
C194     C      0.022770000000     0.230480000000     0.116490000000    -0.00197083 
C195     C      0.981520000000     0.274700000000     0.094180000000     0.0303302  
C196     C      0.979390000000     0.206720000000     0.104310000000     0.10741    
C197     C      0.955820000000     0.156640000000     0.107520000000    -0.191236   
C198     C      0.316970000000     0.440360000000     0.178040000000     0.0246723  
C199     C      0.314230000000     0.371600000000     0.180530000000    -0.00317845 
C200     C      0.360050000000     0.461180000000     0.190280000000     0.028881   
C201     C      0.357920000000     0.392220000000     0.192910000000     0.10958    
C202     C      0.376670000000     0.362390000000     0.201160000000    -0.1959     
C203     C      0.553290000000     0.032580000000     0.336210000000     0.0262186  
C204     C      0.503550000000     0.955590000000     0.336670000000    -0.00184618 
C205     C      0.552930000000     0.033070000000     0.369890000000     0.0315892  
C206     C      0.504910000000     0.955200000000     0.370690000000     0.108114   
C207     C      0.476600000000     0.911270000000     0.387590000000    -0.194835   
C208     C      0.458330000000     0.968020000000     0.087960000000     0.0249433  
C209     C      0.496060000000     0.046020000000     0.085580000000    -0.00476372 
C210     C      0.456310000000     0.969750000000     0.121480000000     0.0294825  
C211     C      0.495740000000     0.048170000000     0.119580000000     0.109654   
C212     C      0.515040000000     0.093310000000     0.135190000000    -0.196745   
C213     C      0.644030000000     0.035130000000     0.025880000000     0.027307   
C214     C      0.662030000000     0.093460000000     0.988950000000    -0.00490652 
C215     C      0.688180000000     0.056180000000     0.036260000000     0.0352063  
C216     C      0.707330000000     0.111260000000     0.996120000000     0.120657   
C217     C      0.739440000000     0.129770000000     0.967750000000    -0.236891   
C218     C      0.218080000000     0.841040000000     0.286060000000     0.026334   
C219     C      0.187140000000     0.887710000000     0.288390000000    -0.0033974  
C220     C      0.219580000000     0.844130000000     0.252450000000     0.0309271  
C221     C      0.186850000000     0.889600000000     0.254440000000     0.110568   
C222     C      0.171110000000     0.918570000000     0.238810000000    -0.196842   
C223     C      0.128180000000     0.828670000000     0.004760000000     0.0266614  
C224     C      0.159870000000     0.782670000000     0.002430000000    -0.00352837 
C225     C      0.127800000000     0.826550000000     0.038390000000     0.0312768  
C226     C      0.161280000000     0.781760000000     0.036400000000     0.110169   
C227     C      0.177990000000     0.753600000000     0.052050000000    -0.196358   
C228     C      0.319220000000     0.881150000000     0.429620000000     0.0257983  
C229     C      0.315000000000     0.946330000000     0.433050000000    -0.00272145 
C230     C      0.361560000000     0.903170000000     0.442870000000     0.0285503  
C231     C      0.358200000000     0.969270000000     0.446450000000     0.110134   
C232     C      0.376000000000     0.017130000000     0.456100000000    -0.197577   
C233     C      0.792200000000     0.633270000000     0.420040000000     0.0264843  
C234     C      0.826500000000     0.711130000000     0.417510000000    -0.00382296 
C235     C      0.791030000000     0.635080000000     0.453590000000     0.0305222  
C236     C      0.827160000000     0.713450000000     0.451460000000     0.110033   
C237     C      0.844970000000     0.758460000000     0.467030000000    -0.196834   
C238     C      0.887110000000     0.703980000000     0.168550000000     0.0270345  
C239     C      0.839680000000     0.626550000000     0.168720000000    -0.00149471 
C240     C      0.886640000000     0.704170000000     0.202240000000     0.0318349  
C241     C      0.840860000000     0.625910000000     0.202660000000     0.108386   
C242     C      0.813660000000     0.581420000000     0.219160000000    -0.194162   
C243     C      0.691640000000     0.569780000000     0.277460000000     0.024877   
C244     C      0.696110000000     0.639290000000     0.274190000000    -0.00307524 
C245     C      0.649050000000     0.549690000000     0.264540000000     0.0286827  
C246     C      0.652710000000     0.619310000000     0.261190000000     0.109571   
C247     C      0.634930000000     0.649680000000     0.252130000000    -0.196578   
C248     C      0.986110000000     0.769620000000     0.344420000000     0.0252839  
C249     C      0.981600000000     0.700160000000     0.348560000000    -0.00360118 
C250     C      0.028540000000     0.789900000000     0.357610000000     0.0309641  
C251     C      0.024880000000     0.720350000000     0.361800000000     0.111415   
C252     C      0.042550000000     0.690150000000     0.371600000000    -0.19704    
C253     C      0.858210000000     0.668420000000     0.752090000000     0.481008   
C254     C      0.818310000000     0.669800000000     0.869750000000     0.476163   
C255     C      0.758140000000     0.634020000000     0.793620000000     0.472436   
C256     C      0.919690000000     0.705150000000     0.828470000000     0.47379    
C257     C      0.193530000000     0.853770000000     0.836400000000     0.475271   
C258     C      0.151740000000     0.815240000000     0.954270000000     0.474725   
C259     C      0.091620000000     0.789060000000     0.877730000000     0.478311   
C260     C      0.253100000000     0.879460000000     0.913060000000     0.473623   
C261     C      0.523700000000     0.998450000000     0.919870000000     0.478615   
C262     C      0.486860000000     0.004120000000     0.537820000000     0.473874   
C263     C      0.424820000000     0.966950000000     0.962560000000     0.476693   
C264     C      0.587190000000     0.036310000000     0.494680000000     0.474435   
C265     C      0.150060000000     0.337170000000     0.704270000000     0.480124   
C266     C      0.190900000000     0.337770000000     0.586610000000     0.475906   
C267     C      0.250830000000     0.375060000000     0.662370000000     0.472177   
C268     C      0.088650000000     0.297820000000     0.628320000000     0.474081   
C269     C      0.859780000000     0.185280000000     0.498320000000     0.481711   
C270     C      0.815970000000     0.141940000000     0.615050000000     0.472158   
C271     C      0.760180000000     0.118740000000     0.535750000000     0.479121   
C272     C      0.918050000000     0.207670000000     0.577520000000     0.478163   
C273     C      0.527830000000     0.524520000000     0.668100000000     0.480325   
C274     C      0.482740000000     0.487760000000     0.785550000000     0.476487   
C275     C      0.424400000000     0.461150000000     0.708760000000     0.478224   
C276     C      0.585860000000     0.550830000000     0.744950000000     0.477289   
C277     C      0.153200000000     0.341380000000     0.836770000000     0.476485   
C278     C      0.192040000000     0.336280000000     0.954240000000     0.481538   
C279     C      0.210380000000     0.296050000000     0.876930000000     0.482739   
C280     C      0.134290000000     0.380980000000     0.913040000000     0.481149   
C281     C      0.337780000000     0.150300000000     0.870950000000     0.47525    
C282     C      0.332480000000     0.186830000000     0.752860000000     0.475209   
C283     C      0.295670000000     0.209550000000     0.828830000000     0.477399   
C284     C      0.375370000000     0.127580000000     0.795070000000     0.476936   
C285     C      0.000450000000     0.522170000000     0.919690000000     0.477105   
C286     C      0.010690000000     0.487480000000     0.537310000000     0.477705   
C287     C      0.046440000000     0.465570000000     0.960500000000     0.47649    
C288     C      0.963730000000     0.543630000000     0.497120000000     0.480871   
C289     C      0.667010000000     0.856770000000     0.584310000000     0.478789   
C290     C      0.673220000000     0.818600000000     0.701920000000     0.474326   
C291     C      0.711190000000     0.798290000000     0.624640000000     0.481456   
C292     C      0.629430000000     0.877500000000     0.660650000000     0.475268   
C293     C      0.854640000000     0.666320000000     0.619480000000     0.476956   
C294     C      0.818770000000     0.675120000000     0.501880000000     0.480651   
C295     C      0.796180000000     0.710580000000     0.578060000000     0.475619   
C296     C      0.877800000000     0.630860000000     0.543150000000     0.476388   
C297     C      0.519900000000     0.995490000000     0.787180000000     0.474746   
C298     C      0.484480000000     0.008940000000     0.670090000000     0.478381   
C299     C      0.463480000000     0.043030000000     0.748400000000     0.481045   
C300     C      0.541060000000     0.961150000000     0.708660000000     0.481367   
C301     C      0.331480000000     0.147240000000     0.503380000000     0.478854   
C302     C      0.335470000000     0.191840000000     0.620600000000     0.478564   
C303     C      0.368000000000     0.249840000000     0.543870000000     0.477131   
C304     C      0.298520000000     0.089230000000     0.580140000000     0.472167   
C305     C      0.520840000000     0.522420000000     0.535920000000     0.475848   
C306     C      0.479880000000     0.482790000000     0.918180000000     0.481292   
C307     C      0.454900000000     0.421220000000     0.494500000000     0.474049   
C308     C      0.545710000000     0.582610000000     0.960050000000     0.478142   
C309     C      0.193680000000     0.858720000000     0.704040000000     0.479043   
C310     C      0.154980000000     0.813300000000     0.586730000000     0.479572   
C311     C      0.132200000000     0.755840000000     0.663880000000     0.472535   
C312     C      0.217370000000     0.916820000000     0.627540000000     0.477247   
C313     C      0.006870000000     0.522700000000     0.787650000000     0.481853   
C314     C      0.009360000000     0.484470000000     0.669810000000     0.481868   
C315     C      0.968810000000     0.420940000000     0.744230000000     0.478122   
C316     C      0.047620000000     0.584250000000     0.713160000000     0.477472   
C317     C      0.854430000000     0.188860000000     0.865580000000     0.471735   
C318     C      0.819400000000     0.142720000000     0.747790000000     0.477263   
C319     C      0.796490000000     0.086570000000     0.826150000000     0.478502   
C320     C      0.879180000000     0.246770000000     0.788130000000     0.473333   
C321     C      0.672340000000     0.855990000000     0.951910000000     0.474566   
C322     C      0.668290000000     0.812690000000     0.834280000000     0.478119   
C323     C      0.632230000000     0.754020000000     0.910820000000     0.472897   
C324     C      0.708940000000     0.915180000000     0.875440000000     0.474153   
C325     C      0.707580000000     0.978340000000     0.854090000000     0.027369   
C326     C      0.775850000000     0.981330000000     0.863130000000    -0.00267061 
C327     C      0.730190000000     0.021460000000     0.841630000000     0.029818   
C328     C      0.799050000000     0.024840000000     0.851220000000     0.10693    
C329     C      0.849350000000     0.048450000000     0.853660000000    -0.190256   
C330     C      0.880210000000     0.313030000000     0.772240000000     0.0262056  
C331     C      0.945980000000     0.309470000000     0.769740000000    -0.00228227 
C332     C      0.903030000000     0.356370000000     0.760550000000     0.0295038  
C333     C      0.969390000000     0.353060000000     0.757620000000     0.1097     
C334     C      0.017580000000     0.370690000000     0.748380000000    -0.194411   
C335     C      0.066210000000     0.690520000000     0.681100000000     0.0274569  
C336     C      0.135590000000     0.694540000000     0.685250000000    -0.00257731 
C337     C      0.045580000000     0.647470000000     0.693770000000     0.0288776  
C338     C      0.115740000000     0.652330000000     0.699470000000     0.103281   
C339     C      0.147130000000     0.636600000000     0.710820000000    -0.18689    
C340     C      0.566720000000     0.688660000000     0.927170000000     0.0248747  
C341     C      0.635680000000     0.691570000000     0.930880000000    -0.00332068 
C342     C      0.545770000000     0.646250000000     0.940370000000     0.0285423  
C343     C      0.614930000000     0.648620000000     0.944360000000     0.110402   
C344     C      0.644770000000     0.630590000000     0.954490000000    -0.19657    
C345     C      0.234550000000     0.022150000000     0.595950000000     0.0252091  
C346     C      0.304840000000     0.028020000000     0.599570000000    -0.00341917 
C347     C      0.214910000000     0.979450000000     0.608510000000     0.0284276  
C348     C      0.285380000000     0.984670000000     0.612340000000     0.109198   
C349     C      0.316540000000     0.967990000000     0.621900000000    -0.196048   
C350     C      0.453310000000     0.355000000000     0.510180000000     0.0261713  
C351     C      0.388160000000     0.359380000000     0.514750000000    -0.00271097 
C352     C      0.431450000000     0.312700000000     0.523350000000     0.028969   
C353     C      0.365360000000     0.316200000000     0.528020000000     0.109842   
C354     C      0.317560000000     0.298500000000     0.538180000000    -0.197286   
C355     C      0.710770000000     0.832950000000     0.752330000000     0.0260706  
C356     C      0.633750000000     0.782750000000     0.749830000000    -0.00466521 
C357     C      0.709270000000     0.829600000000     0.785950000000     0.0309086  
C358     C      0.631550000000     0.780670000000     0.783790000000     0.109499   
C359     C      0.587260000000     0.749810000000     0.799380000000    -0.196744   
C360     C      0.709520000000     0.880150000000     0.502380000000     0.0267334  
C361     C      0.631980000000     0.850380000000     0.499780000000    -0.00275306 
C362     C      0.707840000000     0.881930000000     0.535990000000     0.0321416  
C363     C      0.629660000000     0.850150000000     0.533740000000     0.11117    
C364     C      0.584890000000     0.834760000000     0.549270000000    -0.196845   
C365     C      0.731270000000     0.709920000000     0.597460000000     0.0270739  
C366     C      0.797890000000     0.777680000000     0.591230000000    -0.00322419 
C367     C      0.710520000000     0.732520000000     0.609260000000     0.0302871  
C368     C      0.777370000000     0.800980000000     0.602670000000     0.107352   
C369     C      0.805070000000     0.851180000000     0.602130000000    -0.190905   
C370     C      0.629710000000     0.941690000000     0.680770000000     0.0273126  
C371     C      0.561880000000     0.875330000000     0.673870000000    -0.00318281 
C372     C      0.606960000000     0.962060000000     0.692950000000     0.0305171  
C373     C      0.538400000000     0.895500000000     0.685730000000     0.10705    
C374     C      0.488100000000     0.867760000000     0.685280000000    -0.190977   
C375     C      0.963100000000     0.504810000000     0.869100000000     0.0257904  
C376     C      0.039720000000     0.556840000000     0.871600000000    -0.00429514 
C377     C      0.965000000000     0.506550000000     0.835440000000     0.0308471  
C378     C      0.042400000000     0.557290000000     0.837720000000     0.109414   
C379     C      0.086610000000     0.588290000000     0.822050000000    -0.195941   
C380     C      0.973400000000     0.455170000000     0.586470000000     0.0263279  
C381     C      0.051010000000     0.502740000000     0.586420000000    -0.00132274 
C382     C      0.973390000000     0.455790000000     0.620140000000     0.0310759  
C383     C      0.051820000000     0.501600000000     0.620370000000     0.107707   
C384     C      0.096330000000     0.528930000000     0.636900000000    -0.193744   
C385     C      0.943040000000     0.631670000000     0.524290000000     0.0277193  
C386     C      0.876200000000     0.563910000000     0.529500000000    -0.00247526 
C387     C      0.964010000000     0.609200000000     0.512640000000     0.0303146  
C388     C      0.896910000000     0.540720000000     0.518160000000     0.107764   
C389     C      0.868890000000     0.490540000000     0.017830000000    -0.191116   
C390     C      0.374670000000     0.165510000000     0.921630000000     0.0261743  
C391     C      0.297520000000     0.115950000000     0.918920000000    -0.00377668 
C392     C      0.372740000000     0.163040000000     0.955250000000     0.0303829  
C393     C      0.294900000000     0.114670000000     0.952870000000     0.109503   
C394     C      0.250320000000     0.084460000000     0.968320000000    -0.196713   
C395     C      0.294180000000     0.172140000000     0.702800000000     0.0260685  
C396     C      0.371140000000     0.222770000000     0.704710000000    -0.00464355 
C397     C      0.295120000000     0.175250000000     0.669200000000     0.0302457  
C398     C      0.372750000000     0.224830000000     0.670750000000     0.109036   
C399     C      0.416630000000     0.256210000000     0.654850000000    -0.196103   
C400     C      0.374810000000     0.062930000000     0.775570000000     0.0275942  
C401     C      0.442750000000     0.129200000000     0.782410000000    -0.00256941 
C402     C      0.397530000000     0.042320000000     0.763760000000     0.030066   
C403     C      0.466170000000     0.108820000000     0.770920000000     0.106991   
C404     C      0.516490000000     0.136440000000     0.771570000000    -0.191067   
C405     C      0.046770000000     0.400470000000     0.943570000000     0.0281787  
C406     C      0.112880000000     0.469350000000     0.941820000000    -0.00200169 
C407     C      0.069310000000     0.379920000000     0.931390000000     0.0302223  
C408     C      0.135880000000     0.449330000000     0.928710000000     0.105272   
C409     C      0.184370000000     0.479910000000     0.920290000000    -0.189508   
C410     C      0.297270000000     0.274650000000     0.848180000000     0.027838   
C411     C      0.228930000000     0.208290000000     0.843240000000    -0.00251773 
C412     C      0.275330000000     0.295730000000     0.860470000000     0.0308584  
C413     C      0.206250000000     0.229130000000     0.855370000000     0.107837   
C414     C      0.155940000000     0.201620000000     0.856270000000    -0.191574   
C415     C      0.488340000000     0.455490000000     0.834590000000     0.02654    
C416     C      0.456570000000     0.501430000000     0.834730000000    -0.00196492 
C417     C      0.488440000000     0.455440000000     0.868260000000     0.0311969  
C418     C      0.454280000000     0.499770000000     0.868670000000     0.107185   
C419     C      0.435620000000     0.525810000000     0.885170000000    -0.192865   
C420     C      0.510020000000     0.548490000000     0.586090000000     0.0265199  
C421     C      0.555450000000     0.516110000000     0.583650000000    -0.00381796 
C422     C      0.513580000000     0.550410000000     0.619620000000     0.03081    
C423     C      0.557910000000     0.516390000000     0.617600000000     0.10983    
C424     C      0.586690000000     0.500290000000     0.633130000000    -0.196158   
C425     C      0.890350000000     0.187180000000     0.914110000000     0.0246396  
C426     C      0.832870000000     0.204430000000     0.916330000000    -0.00646404 
C427     C      0.890260000000     0.184710000000     0.947760000000     0.0322159  
C428     C      0.833060000000     0.203170000000     0.950370000000     0.114767   
C429     C      0.792850000000     0.201080000000     0.467360000000    -0.231194   
C430     C      0.790140000000     0.153410000000     0.665270000000     0.0267081  
C431     C      0.826740000000     0.111940000000     0.663700000000    -0.0042505  
C432     C      0.790200000000     0.152260000000     0.698950000000     0.0307617  
C433     C      0.828450000000     0.111980000000     0.697740000000     0.109247   
C434     C      0.848080000000     0.086630000000     0.713780000000    -0.196008   
C435     C      0.121820000000     0.302130000000     0.788040000000     0.0260975  
C436     C      0.166090000000     0.379960000000     0.787260000000    -0.00174506 
C437     C      0.122730000000     0.301430000000     0.754340000000     0.0300491  
C438     C      0.165040000000     0.379990000000     0.753330000000     0.106149   
C439     C      0.190320000000     0.424510000000     0.736530000000    -0.192526   
C440     C      0.181350000000     0.298510000000     0.537610000000     0.0254     
C441     C      0.220460000000     0.376560000000     0.537700000000    -0.00189122 
C442     C      0.180570000000     0.298690000000     0.503880000000     0.0307603  
C443     C      0.222510000000     0.377250000000     0.503800000000     0.107275   
C444     C      0.245920000000     0.422280000000     0.487590000000    -0.192542   
C445     C      0.024680000000     0.297990000000     0.606830000000     0.0279722  
C446     C      0.022770000000     0.230480000000     0.616490000000    -0.0019729  
C447     C      0.981520000000     0.274700000000     0.594170000000     0.0303324  
C448     C      0.979390000000     0.206720000000     0.604310000000     0.107403   
C449     C      0.955820000000     0.156640000000     0.607510000000    -0.19121    
C450     C      0.316970000000     0.440360000000     0.678040000000     0.0246216  
C451     C      0.314230000000     0.371600000000     0.680540000000    -0.00320996 
C452     C      0.360050000000     0.461170000000     0.690280000000     0.0289744  
C453     C      0.357920000000     0.392220000000     0.692910000000     0.109597   
C454     C      0.376670000000     0.362390000000     0.701160000000    -0.195913   
C455     C      0.553290000000     0.032580000000     0.836210000000     0.026229   
C456     C      0.503550000000     0.955590000000     0.836670000000    -0.00183727 
C457     C      0.552940000000     0.033070000000     0.869890000000     0.0315703  
C458     C      0.504910000000     0.955200000000     0.870690000000     0.108093   
C459     C      0.476590000000     0.911260000000     0.887590000000    -0.194902   
C460     C      0.458330000000     0.968020000000     0.587960000000     0.024938   
C461     C      0.496060000000     0.046020000000     0.585580000000    -0.0047636  
C462     C      0.456310000000     0.969750000000     0.621480000000     0.0294743  
C463     C      0.495740000000     0.048170000000     0.619580000000     0.109649   
C464     C      0.515040000000     0.093310000000     0.635190000000    -0.196741   
C465     C      0.644030000000     0.035130000000     0.525880000000     0.0272441  
C466     C      0.662030000000     0.093460000000     0.488950000000    -0.00477882 
C467     C      0.688180000000     0.056180000000     0.536260000000     0.0352265  
C468     C      0.707330000000     0.111260000000     0.496120000000     0.120691   
C469     C      0.739440000000     0.129770000000     0.467750000000    -0.236881   
C470     C      0.218080000000     0.841040000000     0.786060000000     0.0263298  
C471     C      0.187140000000     0.887700000000     0.788390000000    -0.00328683 
C472     C      0.219580000000     0.844130000000     0.752450000000     0.0309184  
C473     C      0.186850000000     0.889600000000     0.754440000000     0.1105     
C474     C      0.171110000000     0.918570000000     0.738810000000    -0.196741   
C475     C      0.128180000000     0.828670000000     0.504760000000     0.0264039  
C476     C      0.159870000000     0.782670000000     0.502430000000    -0.00367652 
C477     C      0.127800000000     0.826550000000     0.538390000000     0.0313639  
C478     C      0.161280000000     0.781760000000     0.536400000000     0.110205   
C479     C      0.177990000000     0.753600000000     0.552050000000    -0.196376   
C480     C      0.319220000000     0.881150000000     0.929620000000     0.0257954  
C481     C      0.315000000000     0.946330000000     0.933050000000    -0.00272979 
C482     C      0.361560000000     0.903170000000     0.942870000000     0.0285422  
C483     C      0.358200000000     0.969270000000     0.946450000000     0.110127   
C484     C      0.376000000000     0.017130000000     0.956100000000    -0.197569   
C485     C      0.792200000000     0.633270000000     0.920040000000     0.0264782  
C486     C      0.826500000000     0.711130000000     0.917510000000    -0.0038239  
C487     C      0.791030000000     0.635080000000     0.953590000000     0.0305196  
C488     C      0.827160000000     0.713450000000     0.951460000000     0.110021   
C489     C      0.844980000000     0.758460000000     0.967030000000    -0.196816   
C490     C      0.887110000000     0.703980000000     0.668550000000     0.0270888  
C491     C      0.839680000000     0.626550000000     0.668720000000    -0.00150671 
C492     C      0.886640000000     0.704170000000     0.702240000000     0.031765   
C493     C      0.840860000000     0.625910000000     0.702660000000     0.108445   
C494     C      0.813660000000     0.581420000000     0.719160000000    -0.194196   
C495     C      0.691640000000     0.569780000000     0.777460000000     0.0248792  
C496     C      0.696110000000     0.639290000000     0.774190000000    -0.00305553 
C497     C      0.649050000000     0.549690000000     0.764540000000     0.0286836  
C498     C      0.652700000000     0.619310000000     0.761190000000     0.109581   
C499     C      0.634930000000     0.649680000000     0.752130000000    -0.196595   
C500     C      0.986110000000     0.769620000000     0.844430000000     0.0252607  
C501     C      0.981600000000     0.700160000000     0.848560000000    -0.00357329 
C502     C      0.028540000000     0.789900000000     0.857610000000     0.0310021  
C503     C      0.024880000000     0.720350000000     0.861800000000     0.111361   
C504     C      0.042550000000     0.690140000000     0.871600000000    -0.197109   
H1       H      0.710300000000     0.035490000000     0.333180000000     0.0335291  
H2       H      0.671590000000     0.961340000000     0.354840000000     0.0346741  
H3       H      0.794990000000     0.966510000000     0.371690000000     0.0397364  
H4       H      0.862130000000     0.080960000000     0.365890000000     0.0743146  
H5       H      0.861120000000     0.029610000000     0.368350000000     0.0571308  
H6       H      0.864180000000     0.052660000000     0.329230000000     0.071126   
H7       H      0.884140000000     0.373260000000     0.257820000000     0.030683   
H8       H      0.845090000000     0.298680000000     0.277420000000     0.0309474  
H9       H      0.963790000000     0.291540000000     0.272920000000     0.0424825  
H10      H      0.039780000000     0.396290000000     0.265970000000     0.0776457  
H11      H      0.026660000000     0.344290000000     0.248360000000     0.0664565  
H12      H      0.023830000000     0.384390000000     0.223480000000     0.0786705  
H13      H      0.009720000000     0.630320000000     0.196190000000     0.0348735  
H14      H      0.045540000000     0.704490000000     0.174560000000     0.0343595  
H15      H      0.171440000000     0.712540000000     0.182440000000     0.0377326  
H16      H      0.143040000000     0.608450000000     0.195760000000     0.0670313  
H17      H      0.182600000000     0.662840000000     0.208910000000     0.0542129  
H18      H      0.141360000000     0.627300000000     0.236780000000     0.0705227  
H19      H      0.509980000000     0.630040000000     0.443060000000     0.0275087  
H20      H      0.546180000000     0.702930000000     0.421020000000     0.0294842  
H21      H      0.671440000000     0.709010000000     0.427590000000     0.0423734  
H22      H      0.639890000000     0.603310000000     0.438080000000     0.0786608  
H23      H      0.680530000000     0.656260000000     0.453440000000     0.0667802  
H24      H      0.637850000000     0.618890000000     0.479920000000     0.0796056  
H25      H      0.179060000000     0.962040000000     0.111100000000     0.0300387  
H26      H      0.212950000000     0.035290000000     0.090070000000     0.0302797  
H27      H      0.340610000000     0.046770000000     0.096450000000     0.0412588  
H28      H      0.312220000000     0.941060000000     0.105320000000     0.0780399  
H29      H      0.352000000000     0.994420000000     0.120530000000     0.0660066  
H30      H      0.310390000000     0.956210000000     0.147320000000     0.0784883  
H31      H      0.450670000000     0.296090000000     0.025710000000     0.0301891  
H32      H      0.487980000000     0.368600000000     0.003740000000     0.031217   
H33      H      0.370450000000     0.377460000000     0.011780000000     0.041767   
H34      H      0.312890000000     0.287260000000     0.063730000000     0.0790271  
H35      H      0.307590000000     0.324200000000     0.036740000000     0.0675803  
H36      H      0.294980000000     0.270900000000     0.022040000000     0.0791356  
H37      H      0.740020000000     0.849370000000     0.299120000000     0.028393   
H38      H      0.742630000000     0.854270000000     0.240970000000     0.0301736  
H39      H      0.603310000000     0.763670000000     0.236150000000     0.0376755  
H40      H      0.570110000000     0.768430000000     0.305740000000     0.0737087  
H41      H      0.565470000000     0.722370000000     0.282790000000     0.0578427  
H42      H      0.591850000000     0.734280000000     0.321390000000     0.0739217  
H43      H      0.738760000000     0.894070000000     0.049200000000     0.0251886  
H44      H      0.741640000000     0.891890000000     0.991050000000     0.0298135  
H45      H      0.601390000000     0.837800000000     0.986070000000     0.0386227  
H46      H      0.588400000000     0.854600000000     0.071220000000     0.0749393  
H47      H      0.562170000000     0.838960000000     0.032600000000     0.0595958  
H48      H      0.569320000000     0.799150000000     0.055720000000     0.07383    
H49      H      0.675930000000     0.712720000000     0.116280000000     0.0333926  
H50      H      0.711770000000     0.674100000000     0.095780000000     0.0335769  
H51      H      0.832530000000     0.796500000000     0.084080000000     0.0387979  
H52      H      0.812770000000     0.864290000000     0.127190000000     0.0731557  
H53      H      0.837370000000     0.863200000000     0.089590000000     0.0567363  
H54      H      0.787400000000     0.865370000000     0.088700000000     0.0733832  
H55      H      0.626820000000     0.996400000000     0.200340000000     0.0343969  
H56      H      0.665620000000     0.961240000000     0.179240000000     0.0347156  
H57      H      0.543140000000     0.840930000000     0.166320000000     0.0383057  
H58      H      0.473770000000     0.885340000000     0.171900000000     0.0731305  
H59      H      0.476110000000     0.835560000000     0.172730000000     0.056218   
H60      H      0.475050000000     0.860040000000     0.210350000000     0.0728378  
H61      H      0.934650000000     0.485540000000     0.322190000000     0.0280988  
H62      H      0.931310000000     0.483310000000     0.380480000000     0.0305002  
H63      H      0.069860000000     0.577250000000     0.385270000000     0.037395   
H64      H      0.081770000000     0.602440000000     0.299380000000     0.0720507  
H65      H      0.107720000000     0.616710000000     0.338130000000     0.0570943  
H66      H      0.104620000000     0.570200000000     0.316770000000     0.0714895  
H67      H      0.941710000000     0.437180000000     0.132440000000     0.0281503  
H68      H      0.941720000000     0.436780000000     0.074170000000     0.0288559  
H69      H      0.082040000000     0.522050000000     0.073440000000     0.0377247  
H70      H      0.104240000000     0.507190000000     0.151680000000     0.0712944  
H71      H      0.123920000000     0.546240000000     0.119310000000     0.0574731  
H72      H      0.095790000000     0.554810000000     0.152220000000     0.0732008  
H73      H      0.998780000000     0.629090000000     0.006130000000     0.0334315  
H74      H      0.962560000000     0.667450000000     0.026320000000     0.0346167  
H75      H      0.841360000000     0.545060000000     0.036140000000     0.0395325  
H76      H      0.885590000000     0.475760000000     0.531800000000     0.0744468  
H77      H      0.835920000000     0.478370000000     0.529360000000     0.0576592  
H78      H      0.862540000000     0.478170000000     0.492560000000     0.0739233  
H79      H      0.403440000000     0.182860000000     0.468450000000     0.0283404  
H80      H      0.406730000000     0.186250000000     0.410360000000     0.0304717  
H81      H      0.267190000000     0.096840000000     0.405130000000     0.0386166  
H82      H      0.233660000000     0.103630000000     0.974460000000     0.0738527  
H83      H      0.228280000000     0.057120000000     0.451740000000     0.059471   
H84      H      0.254390000000     0.068750000000     0.990430000000     0.0746518  
H85      H      0.264200000000     0.155180000000     0.156300000000     0.0282237  
H86      H      0.262520000000     0.150720000000     0.214390000000     0.0303972  
H87      H      0.401730000000     0.242150000000     0.218160000000     0.0378686  
H88      H      0.411350000000     0.271300000000     0.132860000000     0.0735233  
H89      H      0.438240000000     0.283960000000     0.171280000000     0.0576899  
H90      H      0.434320000000     0.238160000000     0.148390000000     0.073109   
H91      H      0.377660000000     0.007920000000     0.256490000000     0.0337906  
H92      H      0.338880000000     0.043540000000     0.276990000000     0.0340885  
H93      H      0.461590000000     0.163660000000     0.289780000000     0.039514   
H94      H      0.529720000000     0.144190000000     0.246540000000     0.07196    
H95      H      0.528490000000     0.168610000000     0.284150000000     0.0574069  
H96      H      0.530650000000     0.118760000000     0.285010000000     0.0744151  
H97      H      0.050040000000     0.344320000000     0.428010000000     0.0352026  
H98      H      0.011660000000     0.379880000000     0.448830000000     0.0354763  
H99      H      0.130860000000     0.504950000000     0.445560000000     0.0383549  
H100     H      0.190060000000     0.476970000000     0.394230000000     0.0727993  
H101     H      0.195080000000     0.515350000000     0.424540000000     0.0554167  
H102     H      0.205910000000     0.472240000000     0.435560000000     0.0689088  
H103     H      0.295660000000     0.330340000000     0.367080000000     0.0341463  
H104     H      0.333110000000     0.293950000000     0.345800000000     0.034463   
H105     H      0.209710000000     0.173610000000     0.336480000000     0.0393645  
H106     H      0.141100000000     0.218700000000     0.342880000000     0.0740814  
H107     H      0.143180000000     0.168800000000     0.344500000000     0.0573895  
H108     H      0.144140000000     0.195170000000     0.381690000000     0.0735795  
H109     H      0.501920000000     0.437130000000     0.380420000000     0.0286624  
H110     H      0.502360000000     0.437850000000     0.322220000000     0.0298246  
H111     H      0.444210000000     0.520250000000     0.321860000000     0.0374634  
H112     H      0.461490000000     0.552350000000     0.400480000000     0.0740486  
H113     H      0.424360000000     0.542240000000     0.367560000000     0.0568962  
H114     H      0.406190000000     0.503280000000     0.399900000000     0.0719536  
H115     H      0.495760000000     0.563750000000     0.132630000000     0.0282277  
H116     H      0.490590000000     0.561300000000     0.074730000000     0.0301841  
H117     H      0.572490000000     0.502480000000     0.069970000000     0.0379766  
H118     H      0.565990000000     0.464920000000     0.140060000000     0.0727241  
H119     H      0.612990000000     0.503350000000     0.116300000000     0.0587912  
H120     H      0.603880000000     0.520530000000     0.154760000000     0.0746293  
H121     H      0.913210000000     0.176350000000     0.459260000000     0.0247391  
H122     H      0.912930000000     0.179890000000     0.400950000000     0.0287827  
H123     H      0.808350000000     0.210200000000     0.404480000000     0.0402427  
H124     H      0.799610000000     0.217270000000     0.991250000000     0.0877739  
H125     H      0.781120000000     0.220460000000     0.453220000000     0.0680845  
H126     H      0.769880000000     0.163880000000     0.972970000000     0.0888028  
H127     H      0.775730000000     0.169290000000     0.211600000000     0.0292103  
H128     H      0.775020000000     0.170480000000     0.153540000000     0.0310276  
H129     H      0.841470000000     0.095690000000     0.150340000000     0.035261   
H130     H      0.828930000000     0.069390000000     0.235780000000     0.0750544  
H131     H      0.846850000000     0.060670000000     0.197500000000     0.0579089  
H132     H      0.883340000000     0.109660000000     0.220160000000     0.0726913  
H133     H      0.105600000000     0.269460000000     0.242380000000     0.0272753  
H134     H      0.104870000000     0.270720000000     0.300750000000     0.027121   
H135     H      0.183970000000     0.411360000000     0.299950000000     0.0362096  
H136     H      0.167250000000     0.430470000000     0.221630000000     0.0705474  
H137     H      0.206290000000     0.452450000000     0.253940000000     0.0564035  
H138     H      0.217260000000     0.425740000000     0.221340000000     0.0748457  
H139     H      0.163720000000     0.266970000000     0.991550000000     0.0276729  
H140     H      0.164440000000     0.266840000000     0.049980000000     0.0291656  
H141     H      0.236010000000     0.407790000000     0.050750000000     0.0374668  
H142     H      0.221890000000     0.427040000000     0.472920000000     0.0721409  
H143     H      0.260840000000     0.449870000000     0.005350000000     0.0567831  
H144     H      0.273590000000     0.425390000000     0.472320000000     0.0722344  
H145     H      0.966880000000     0.293830000000     0.085300000000     0.0332874  
H146     H      0.041220000000     0.333870000000     0.107460000000     0.0340708  
H147     H      0.037850000000     0.211800000000     0.125480000000     0.0398419  
H148     H      0.954250000000     0.141330000000     0.083670000000     0.0715134  
H149     H      0.973270000000     0.145680000000     0.124440000000     0.0569665  
H150     H      0.921960000000     0.143830000000     0.117600000000     0.0737902  
H151     H      0.376260000000     0.496820000000     0.193290000000     0.0298866  
H152     H      0.302370000000     0.460840000000     0.172780000000     0.0285606  
H153     H      0.296660000000     0.335970000000     0.177010000000     0.0422685  
H154     H      0.387750000000     0.367230000000     0.226750000000     0.0791281  
H155     H      0.351590000000     0.326690000000     0.198490000000     0.0658123  
H156     H      0.404570000000     0.369220000000     0.184660000000     0.0766915  
H157     H      0.572550000000     0.064730000000     0.381940000000     0.0269245  
H158     H      0.572540000000     0.063930000000     0.323740000000     0.0282049  
H159     H      0.483240000000     0.924640000000     0.323930000000     0.0378736  
H160     H      0.451290000000     0.912910000000     0.402990000000     0.0749199  
H161     H      0.458440000000     0.883630000000     0.370220000000     0.0586858  
H162     H      0.497900000000     0.902730000000     0.402400000000     0.0736275  
H163     H      0.440720000000     0.938480000000     0.134430000000     0.0252235  
H164     H      0.443350000000     0.935680000000     0.076560000000     0.0292096  
H165     H      0.511880000000     0.076720000000     0.071920000000     0.0385363  
H166     H      0.550130000000     0.105490000000     0.142120000000     0.0741022  
H167     H      0.514160000000     0.117760000000     0.118400000000     0.0592174  
H168     H      0.495430000000     0.091790000000     0.156830000000     0.0740282  
H169     H      0.697140000000     0.041670000000     0.056020000000     0.0286036  
H170     H      0.620250000000     0.004340000000     0.037440000000     0.0329669  
H171     H      0.652820000000     0.106860000000     0.468580000000     0.037714   
H172     H      0.755900000000     0.109590000000     0.964830000000     0.0849462  
H173     H      0.720880000000     0.123620000000     0.444610000000     0.0748731  
H174     H      0.761290000000     0.167360000000     0.964330000000     0.0541599  
H175     H      0.232110000000     0.825650000000     0.239380000000     0.0270282  
H176     H      0.230400000000     0.821250000000     0.297480000000     0.0294597  
H177     H      0.174230000000     0.905450000000     0.302010000000     0.0387141  
H178     H      0.135440000000     0.898270000000     0.232320000000     0.0743959  
H179     H      0.175040000000     0.945360000000     0.255420000000     0.0598332  
H180     H      0.191010000000     0.935000000000     0.216880000000     0.0749444  
H181     H      0.115280000000     0.845070000000     0.051420000000     0.0286835  
H182     H      0.115170000000     0.847860000000     0.993330000000     0.030286   
H183     H      0.172700000000     0.764870000000     0.988790000000     0.0375841  
H184     H      0.158500000000     0.737190000000     0.074130000000     0.0752078  
H185     H      0.174370000000     0.726800000000     0.035570000000     0.0588093  
H186     H      0.213680000000     0.774490000000     0.058270000000     0.0732287  
H187     H      0.378110000000     0.883960000000     0.445680000000     0.0279602  
H188     H      0.305540000000     0.846430000000     0.423600000000     0.0302707  
H189     H      0.296960000000     0.964000000000     0.429610000000     0.0419276  
H190     H      0.403500000000     0.039330000000     0.439710000000     0.0791891  
H191     H      0.350170000000     0.026980000000     0.454560000000     0.0669485  
H192     H      0.387540000000     0.022330000000     0.481580000000     0.079704   
H193     H      0.777140000000     0.603980000000     0.466670000000     0.0285464  
H194     H      0.778350000000     0.600980000000     0.408680000000     0.0304273  
H195     H      0.840660000000     0.741750000000     0.403780000000     0.0385174  
H196     H      0.880460000000     0.772150000000     0.973500000000     0.0742718  
H197     H      0.842430000000     0.782140000000     0.450390000000     0.0592197  
H198     H      0.825470000000     0.756090000000     0.988950000000     0.0743863  
H199     H      0.905320000000     0.735840000000     0.214430000000     0.028625   
H200     H      0.905440000000     0.735510000000     0.156140000000     0.0303479  
H201     H      0.820430000000     0.595500000000     0.155840000000     0.0382157  
H202     H      0.787480000000     0.581590000000     0.234450000000     0.0755769  
H203     H      0.796540000000     0.553870000000     0.201570000000     0.0588721  
H204     H      0.835610000000     0.573710000000     0.233930000000     0.0743978  
H205     H      0.632360000000     0.514000000000     0.261660000000     0.0299984  
H206     H      0.705340000000     0.548650000000     0.283240000000     0.0294185  
H207     H      0.714290000000     0.674930000000     0.277620000000     0.0425574  
H208     H      0.607060000000     0.643750000000     0.268380000000     0.0776221  
H209     H      0.660560000000     0.685250000000     0.254460000000     0.0669154  
H210     H      0.623990000000     0.644390000000     0.226500000000     0.0788311  
H211     H      0.045250000000     0.825650000000     0.360180000000     0.0306175  
H212     H      0.972480000000     0.790680000000     0.338180000000     0.0313895  
H213     H      0.963450000000     0.664470000000     0.345410000000     0.0426722  
H214     H      0.053900000000     0.696390000000     0.397140000000     0.0793882  
H215     H      0.016720000000     0.654550000000     0.370010000000     0.0674196  
H216     H      0.070130000000     0.695290000000     0.355330000000     0.077413   
H217     H      0.710300000000     0.035490000000     0.833180000000     0.0335283  
H218     H      0.671590000000     0.961340000000     0.854840000000     0.0346767  
H219     H      0.794990000000     0.966500000000     0.871690000000     0.0397305  
H220     H      0.862130000000     0.080960000000     0.865890000000     0.074332   
H221     H      0.861120000000     0.029610000000     0.868350000000     0.0571463  
H222     H      0.864180000000     0.052660000000     0.829240000000     0.071185   
H223     H      0.884140000000     0.373260000000     0.757820000000     0.0306545  
H224     H      0.845090000000     0.298680000000     0.777420000000     0.0309697  
H225     H      0.963790000000     0.291540000000     0.772920000000     0.0424857  
H226     H      0.039780000000     0.396290000000     0.765970000000     0.0776424  
H227     H      0.026660000000     0.344290000000     0.748360000000     0.0664584  
H228     H      0.023820000000     0.384390000000     0.723480000000     0.0786784  
H229     H      0.009720000000     0.630320000000     0.696190000000     0.0348753  
H230     H      0.045540000000     0.704500000000     0.674560000000     0.0343617  
H231     H      0.171440000000     0.712540000000     0.682440000000     0.0377257  
H232     H      0.143040000000     0.608450000000     0.695760000000     0.0670481  
H233     H      0.182590000000     0.662840000000     0.708910000000     0.0542528  
H234     H      0.141360000000     0.627300000000     0.736780000000     0.0705369  
H235     H      0.509980000000     0.630040000000     0.943060000000     0.0275     
H236     H      0.546180000000     0.702930000000     0.921020000000     0.0294802  
H237     H      0.671440000000     0.709010000000     0.927590000000     0.0423658  
H238     H      0.639890000000     0.603310000000     0.938070000000     0.0786083  
H239     H      0.680530000000     0.656260000000     0.953440000000     0.0667479  
H240     H      0.637850000000     0.618890000000     0.979920000000     0.0795698  
H241     H      0.179060000000     0.962040000000     0.611100000000     0.0300426  
H242     H      0.212950000000     0.035290000000     0.590070000000     0.0302713  
H243     H      0.340610000000     0.046770000000     0.596450000000     0.0412552  
H244     H      0.312220000000     0.941060000000     0.605320000000     0.0780055  
H245     H      0.352000000000     0.994420000000     0.620530000000     0.0660079  
H246     H      0.310390000000     0.956210000000     0.647320000000     0.0785461  
H247     H      0.450670000000     0.296090000000     0.525710000000     0.0301763  
H248     H      0.487970000000     0.368600000000     0.503740000000     0.0311994  
H249     H      0.370450000000     0.377460000000     0.511780000000     0.0417369  
H250     H      0.312890000000     0.287260000000     0.563730000000     0.0790244  
H251     H      0.307590000000     0.324200000000     0.536740000000     0.06757    
H252     H      0.294980000000     0.270900000000     0.522040000000     0.0791175  
H253     H      0.740020000000     0.849370000000     0.799120000000     0.0283929  
H254     H      0.742630000000     0.854270000000     0.740980000000     0.0301737  
H255     H      0.603310000000     0.763670000000     0.736150000000     0.0376805  
H256     H      0.570110000000     0.768430000000     0.805740000000     0.0737021  
H257     H      0.565470000000     0.722360000000     0.782790000000     0.0578137  
H258     H      0.591850000000     0.734280000000     0.821390000000     0.073911   
H259     H      0.738760000000     0.894070000000     0.549200000000     0.0251664  
H260     H      0.741640000000     0.891900000000     0.491050000000     0.029916   
H261     H      0.601390000000     0.837800000000     0.486070000000     0.0386106  
H262     H      0.588400000000     0.854600000000     0.571220000000     0.0749291  
H263     H      0.562170000000     0.838960000000     0.532600000000     0.0595586  
H264     H      0.569320000000     0.799150000000     0.555720000000     0.0738063  
H265     H      0.675930000000     0.712720000000     0.616280000000     0.0333918  
H266     H      0.711770000000     0.674100000000     0.595780000000     0.0335652  
H267     H      0.832530000000     0.796500000000     0.584080000000     0.0387957  
H268     H      0.812770000000     0.864290000000     0.627190000000     0.0731597  
H269     H      0.837370000000     0.863200000000     0.589590000000     0.0567269  
H270     H      0.787400000000     0.865370000000     0.588700000000     0.0733901  
H271     H      0.626820000000     0.996400000000     0.700340000000     0.0343917  
H272     H      0.665620000000     0.961240000000     0.679240000000     0.0347319  
H273     H      0.543140000000     0.840930000000     0.666320000000     0.0382899  
H274     H      0.473770000000     0.885340000000     0.671900000000     0.073126   
H275     H      0.476110000000     0.835560000000     0.672730000000     0.0562179  
H276     H      0.475050000000     0.860050000000     0.710350000000     0.0728509  
H277     H      0.934650000000     0.485540000000     0.822190000000     0.0281107  
H278     H      0.931310000000     0.483310000000     0.880480000000     0.0304947  
H279     H      0.069860000000     0.577250000000     0.885270000000     0.0373923  
H280     H      0.081770000000     0.602440000000     0.799380000000     0.0721076  
H281     H      0.107720000000     0.616710000000     0.838130000000     0.0570758  
H282     H      0.104620000000     0.570200000000     0.816770000000     0.0715151  
H283     H      0.941710000000     0.437180000000     0.632440000000     0.0281494  
H284     H      0.941720000000     0.436780000000     0.574170000000     0.0288497  
H285     H      0.082040000000     0.522050000000     0.573450000000     0.0377306  
H286     H      0.104240000000     0.507180000000     0.651680000000     0.0712787  
H287     H      0.123920000000     0.546240000000     0.619310000000     0.0574458  
H288     H      0.095790000000     0.554810000000     0.652220000000     0.0731481  
H289     H      0.998780000000     0.629090000000     0.506130000000     0.0334068  
H290     H      0.962560000000     0.667450000000     0.526320000000     0.0345957  
H291     H      0.841370000000     0.545060000000     0.536140000000     0.039533   
H292     H      0.885590000000     0.475760000000     0.031790000000     0.0744797  
H293     H      0.835920000000     0.478370000000     0.029360000000     0.0576646  
H294     H      0.862540000000     0.478170000000     0.992560000000     0.0738498  
H295     H      0.403440000000     0.182860000000     0.968450000000     0.0283348  
H296     H      0.406730000000     0.186250000000     0.910360000000     0.0304562  
H297     H      0.267190000000     0.096840000000     0.905130000000     0.0386049  
H298     H      0.233660000000     0.103630000000     0.474460000000     0.0738597  
H299     H      0.228280000000     0.057120000000     0.951740000000     0.0594326  
H300     H      0.254390000000     0.068750000000     0.490430000000     0.0746363  
H301     H      0.264200000000     0.155180000000     0.656300000000     0.0282253  
H302     H      0.262520000000     0.150720000000     0.714390000000     0.0303957  
H303     H      0.401730000000     0.242150000000     0.718160000000     0.037855   
H304     H      0.411350000000     0.271300000000     0.632860000000     0.0735062  
H305     H      0.438240000000     0.283960000000     0.671280000000     0.0576744  
H306     H      0.434320000000     0.238150000000     0.648390000000     0.0730597  
H307     H      0.377660000000     0.007920000000     0.756490000000     0.0337939  
H308     H      0.338880000000     0.043540000000     0.776990000000     0.0340923  
H309     H      0.461590000000     0.163660000000     0.789780000000     0.0395145  
H310     H      0.529720000000     0.144190000000     0.746540000000     0.0719401  
H311     H      0.528490000000     0.168610000000     0.784150000000     0.0573921  
H312     H      0.530660000000     0.118760000000     0.785010000000     0.0743715  
H313     H      0.050030000000     0.344320000000     0.928010000000     0.0351786  
H314     H      0.011660000000     0.379880000000     0.948830000000     0.0354617  
H315     H      0.130860000000     0.504950000000     0.945560000000     0.0383256  
H316     H      0.190060000000     0.476970000000     0.894230000000     0.0727923  
H317     H      0.195080000000     0.515350000000     0.924540000000     0.0554016  
H318     H      0.205910000000     0.472240000000     0.935560000000     0.0688918  
H319     H      0.295660000000     0.330340000000     0.867080000000     0.0341443  
H320     H      0.333110000000     0.293950000000     0.845800000000     0.0344619  
H321     H      0.209710000000     0.173620000000     0.836480000000     0.0393678  
H322     H      0.141100000000     0.218700000000     0.842880000000     0.0740815  
H323     H      0.143180000000     0.168800000000     0.844500000000     0.0573869  
H324     H      0.144140000000     0.195170000000     0.881690000000     0.0735731  
H325     H      0.501920000000     0.437130000000     0.880420000000     0.0286651  
H326     H      0.502360000000     0.437850000000     0.822230000000     0.0298168  
H327     H      0.444210000000     0.520250000000     0.821860000000     0.0374618  
H328     H      0.461490000000     0.552350000000     0.900480000000     0.0740032  
H329     H      0.424360000000     0.542240000000     0.867560000000     0.0568876  
H330     H      0.406190000000     0.503280000000     0.899900000000     0.0719868  
H331     H      0.495760000000     0.563750000000     0.632630000000     0.028223   
H332     H      0.490590000000     0.561300000000     0.574730000000     0.0301517  
H333     H      0.572490000000     0.502480000000     0.569970000000     0.0379709  
H334     H      0.565990000000     0.464920000000     0.640050000000     0.0727806  
H335     H      0.612990000000     0.503350000000     0.616300000000     0.0588546  
H336     H      0.603870000000     0.520530000000     0.654760000000     0.0746124  
H337     H      0.913200000000     0.176350000000     0.959260000000     0.0247051  
H338     H      0.912930000000     0.179890000000     0.900950000000     0.0287874  
H339     H      0.808360000000     0.210200000000     0.904480000000     0.040257   
H340     H      0.799610000000     0.217270000000     0.491250000000     0.087773   
H341     H      0.781120000000     0.220450000000     0.953220000000     0.0681322  
H342     H      0.769880000000     0.163880000000     0.472970000000     0.0887779  
H343     H      0.775730000000     0.169290000000     0.711600000000     0.0292275  
H344     H      0.775020000000     0.170480000000     0.653540000000     0.0310145  
H345     H      0.841470000000     0.095690000000     0.650340000000     0.0352591  
H346     H      0.828930000000     0.069390000000     0.735780000000     0.0750616  
H347     H      0.846850000000     0.060670000000     0.697500000000     0.0579148  
H348     H      0.883340000000     0.109660000000     0.720160000000     0.0726974  
H349     H      0.105600000000     0.269460000000     0.742370000000     0.0272825  
H350     H      0.104870000000     0.270720000000     0.800750000000     0.0271237  
H351     H      0.183970000000     0.411360000000     0.799950000000     0.03621    
H352     H      0.167250000000     0.430470000000     0.721630000000     0.0705483  
H353     H      0.206290000000     0.452450000000     0.753940000000     0.0564041  
H354     H      0.217260000000     0.425740000000     0.721340000000     0.0748475  
H355     H      0.163720000000     0.266970000000     0.491550000000     0.0277839  
H356     H      0.164440000000     0.266840000000     0.549970000000     0.0291271  
H357     H      0.236000000000     0.407780000000     0.550750000000     0.0374554  
H358     H      0.221890000000     0.427040000000     0.972920000000     0.0721913  
H359     H      0.260840000000     0.449870000000     0.505350000000     0.0566565  
H360     H      0.273580000000     0.425380000000     0.972320000000     0.0723079  
H361     H      0.966880000000     0.293830000000     0.585300000000     0.0332788  
H362     H      0.041220000000     0.333870000000     0.607460000000     0.0340762  
H363     H      0.037850000000     0.211800000000     0.625480000000     0.0398418  
H364     H      0.954250000000     0.141330000000     0.583670000000     0.0715411  
H365     H      0.973270000000     0.145680000000     0.624440000000     0.0569264  
H366     H      0.921960000000     0.143830000000     0.617600000000     0.0737603  
H367     H      0.376260000000     0.496820000000     0.693290000000     0.0298596  
H368     H      0.302370000000     0.460840000000     0.672780000000     0.0285719  
H369     H      0.296660000000     0.335970000000     0.677010000000     0.0422802  
H370     H      0.387750000000     0.367230000000     0.726750000000     0.0791354  
H371     H      0.351590000000     0.326690000000     0.698490000000     0.0658203  
H372     H      0.404570000000     0.369220000000     0.684660000000     0.0767003  
H373     H      0.572550000000     0.064730000000     0.881940000000     0.0269325  
H374     H      0.572540000000     0.063930000000     0.823730000000     0.0282112  
H375     H      0.483240000000     0.924640000000     0.823930000000     0.0378775  
H376     H      0.451290000000     0.912910000000     0.902990000000     0.0749545  
H377     H      0.458440000000     0.883630000000     0.870220000000     0.058734   
H378     H      0.497900000000     0.902730000000     0.902400000000     0.0736348  
H379     H      0.440720000000     0.938480000000     0.634430000000     0.0252215  
H380     H      0.443350000000     0.935680000000     0.576560000000     0.0291945  
H381     H      0.511880000000     0.076720000000     0.571920000000     0.038528   
H382     H      0.550130000000     0.105490000000     0.642120000000     0.0741008  
H383     H      0.514160000000     0.117760000000     0.618400000000     0.059213   
H384     H      0.495430000000     0.091790000000     0.656830000000     0.0740322  
H385     H      0.697140000000     0.041670000000     0.556020000000     0.0286049  
H386     H      0.620250000000     0.004340000000     0.537440000000     0.0329636  
H387     H      0.652810000000     0.106860000000     0.968580000000     0.0377458  
H388     H      0.755900000000     0.109590000000     0.464830000000     0.0849543  
H389     H      0.720880000000     0.123620000000     0.944610000000     0.0748743  
H390     H      0.761290000000     0.167360000000     0.464330000000     0.0541639  
H391     H      0.232110000000     0.825650000000     0.739380000000     0.0270213  
H392     H      0.230400000000     0.821250000000     0.797480000000     0.0294623  
H393     H      0.174230000000     0.905450000000     0.802010000000     0.0386814  
H394     H      0.135440000000     0.898270000000     0.732320000000     0.0743738  
H395     H      0.175040000000     0.945370000000     0.755420000000     0.0597791  
H396     H      0.191010000000     0.935000000000     0.716880000000     0.0749248  
H397     H      0.115280000000     0.845070000000     0.551420000000     0.0286463  
H398     H      0.115170000000     0.847860000000     0.493330000000     0.0304041  
H399     H      0.172700000000     0.764870000000     0.488790000000     0.0376705  
H400     H      0.158500000000     0.737190000000     0.574130000000     0.075214   
H401     H      0.174370000000     0.726800000000     0.535570000000     0.0587913  
H402     H      0.213680000000     0.774490000000     0.558270000000     0.0732213  
H403     H      0.378110000000     0.883960000000     0.945680000000     0.0279541  
H404     H      0.305540000000     0.846430000000     0.923600000000     0.0302665  
H405     H      0.296960000000     0.964000000000     0.929610000000     0.0419234  
H406     H      0.403500000000     0.039330000000     0.939710000000     0.0791846  
H407     H      0.350170000000     0.026980000000     0.954560000000     0.0669379  
H408     H      0.387540000000     0.022330000000     0.981580000000     0.0796809  
H409     H      0.777140000000     0.603980000000     0.966670000000     0.0285226  
H410     H      0.778350000000     0.600980000000     0.908680000000     0.0304233  
H411     H      0.840660000000     0.741750000000     0.903780000000     0.0385152  
H412     H      0.880460000000     0.772150000000     0.473500000000     0.0742626  
H413     H      0.842430000000     0.782140000000     0.950390000000     0.0591863  
H414     H      0.825470000000     0.756090000000     0.488950000000     0.0744504  
H415     H      0.905320000000     0.735840000000     0.714430000000     0.0286419  
H416     H      0.905440000000     0.735510000000     0.656140000000     0.0303269  
H417     H      0.820430000000     0.595500000000     0.655840000000     0.0382053  
H418     H      0.787480000000     0.581590000000     0.734450000000     0.0755831  
H419     H      0.796540000000     0.553870000000     0.701570000000     0.058876   
H420     H      0.835600000000     0.573700000000     0.733930000000     0.0744081  
H421     H      0.632360000000     0.514000000000     0.761660000000     0.0300081  
H422     H      0.705340000000     0.548650000000     0.783230000000     0.029414   
H423     H      0.714290000000     0.674930000000     0.777620000000     0.04255    
H424     H      0.607060000000     0.643750000000     0.768380000000     0.0776253  
H425     H      0.660570000000     0.685250000000     0.754460000000     0.0669122  
H426     H      0.623990000000     0.644390000000     0.726500000000     0.0788372  
H427     H      0.045250000000     0.825650000000     0.860180000000     0.0306023  
H428     H      0.972480000000     0.790680000000     0.838180000000     0.0313957  
H429     H      0.963460000000     0.664470000000     0.845410000000     0.0426554  
H430     H      0.053900000000     0.696390000000     0.897140000000     0.0793942  
H431     H      0.016720000000     0.654550000000     0.870020000000     0.0674662  
H432     H      0.070130000000     0.695290000000     0.855330000000     0.0774425  
N1       N      0.730450000000     0.958140000000     0.364410000000    -0.184202   
N2       N      0.775730000000     0.044570000000     0.339380000000    -0.20281    
N3       N      0.901700000000     0.289660000000     0.277000000000    -0.183937   
N4       N      0.947690000000     0.377080000000     0.253800000000    -0.202623   
N5       N      0.111100000000     0.713620000000     0.176310000000    -0.184857   
N6       N      0.069810000000     0.627760000000     0.202610000000    -0.202337   
N7       N      0.611630000000     0.711420000000     0.422520000000    -0.184429   
N8       N      0.569230000000     0.625580000000     0.448660000000    -0.203471   
N9       N      0.279460000000     0.046540000000     0.091540000000    -0.184494   
N10      N      0.239660000000     0.960030000000     0.116440000000    -0.202959   
N11      N      0.431930000000     0.378570000000     0.006050000000    -0.184155   
N12      N      0.387500000000     0.292640000000     0.032100000000    -0.203127   
N13      N      0.672780000000     0.810770000000     0.234430000000    -0.18462    
N14      N      0.669430000000     0.806330000000     0.301680000000    -0.204386   
N15      N      0.671440000000     0.863030000000     0.984440000000    -0.183916   
N16      N      0.667840000000     0.863990000000     0.051680000000    -0.204559   
N17      N      0.775020000000     0.732500000000     0.088750000000    -0.185474   
N18      N      0.733320000000     0.777820000000     0.112480000000    -0.203281   
N19      N      0.607200000000     0.898250000000     0.171550000000    -0.185308   
N20      N      0.561520000000     0.939240000000     0.196040000000    -0.203047   
N21      N      0.000770000000     0.528690000000     0.387030000000    -0.184877   
N22      N      0.004980000000     0.529950000000     0.319950000000    -0.204984   
N23      N      0.011820000000     0.480840000000     0.069810000000    -0.185331   
N24      N      0.012110000000     0.479760000000     0.137120000000    -0.204099   
N25      N      0.899090000000     0.609030000000     0.032480000000    -0.184906   
N26      N      0.941270000000     0.563930000000     0.009040000000    -0.202909   
N27      N      0.336850000000     0.143210000000     0.403590000000    -0.184614   
N28      N      0.332690000000     0.140440000000     0.470840000000    -0.204746   
N29      N      0.332450000000     0.194530000000     0.220380000000    -0.184803   
N30      N      0.334690000000     0.198660000000     0.153160000000    -0.204786   
N31      N      0.397410000000     0.106450000000     0.284560000000    -0.185285   
N32      N      0.443000000000     0.065020000000     0.260800000000    -0.203464   
N33      N      0.068620000000     0.445080000000     0.448980000000    -0.185162   
N34      N      0.113800000000     0.403760000000     0.424030000000    -0.202856   
N35      N      0.274110000000     0.230900000000     0.339820000000    -0.185391   
N36      N      0.230060000000     0.273290000000     0.364600000000    -0.203558   
N37      N      0.474920000000     0.480670000000     0.318030000000    -0.185704   
N38      N      0.472780000000     0.478480000000     0.385390000000    -0.204039   
N39      N      0.529480000000     0.529770000000     0.068300000000    -0.185209   
N40      N      0.534450000000     0.531340000000     0.135440000000    -0.205057   
N41      N      0.860270000000     0.194980000000     0.398410000000    -0.183265   
N42      N      0.861710000000     0.192250000000     0.465740000000    -0.206463   
N43      N      0.809870000000     0.134730000000     0.147720000000    -0.184264   
N44      N      0.812090000000     0.134550000000     0.215190000000    -0.203319   
N45      N      0.145870000000     0.341170000000     0.304280000000    -0.186087   
N46      N      0.145130000000     0.339960000000     0.236960000000    -0.204059   
N47      N      0.198610000000     0.337470000000     0.054240000000    -0.185731   
N48      N      0.199670000000     0.337770000000     0.986930000000    -0.204201   
N49      N      0.045500000000     0.275820000000     0.117420000000    -0.184228   
N50      N      0.959410000000     0.229320000000     0.091750000000    -0.202482   
N51      N      0.293940000000     0.395600000000     0.173300000000    -0.184427   
N52      N      0.381120000000     0.437760000000     0.197600000000    -0.202613   
N53      N      0.526500000000     0.994340000000     0.319750000000    -0.184908   
N54      N      0.528030000000     0.994910000000     0.387180000000    -0.20366    
N55      N      0.479710000000     0.006120000000     0.070180000000    -0.184746   
N56      N      0.477950000000     0.009500000000     0.137400000000    -0.204875   
N57      N      0.630820000000     0.055140000000     0.003510000000    -0.183521   
N58      N      0.718740000000     0.095580000000     0.022770000000    -0.207336   
N59      N      0.200410000000     0.861520000000     0.303870000000    -0.184584   
N60      N      0.201000000000     0.865470000000     0.236640000000    -0.204803   
N61      N      0.145670000000     0.808070000000     0.986900000000    -0.184918   
N62      N      0.147240000000     0.806010000000     0.054180000000    -0.204356   
N63      N      0.295740000000     0.902490000000     0.424820000000    -0.184103   
N64      N      0.381760000000     0.947240000000     0.451040000000    -0.203105   
N65      N      0.811470000000     0.671350000000     0.402180000000    -0.184987   
N66      N      0.811520000000     0.675020000000     0.469310000000    -0.205105   
N67      N      0.861440000000     0.665540000000     0.151990000000    -0.185245   
N68      N      0.862740000000     0.665620000000     0.219350000000    -0.20396    
N69      N      0.715340000000     0.614530000000     0.282150000000    -0.184369   
N70      N      0.628910000000     0.573770000000     0.256570000000    -0.202895   
N71      N      0.962430000000     0.724790000000     0.340070000000    -0.183649   
N72      N      0.048610000000     0.765950000000     0.366090000000    -0.202902   
N73      N      0.730450000000     0.958140000000     0.864410000000    -0.184201   
N74      N      0.775730000000     0.044570000000     0.839380000000    -0.202818   
N75      N      0.901700000000     0.289670000000     0.777010000000    -0.183884   
N76      N      0.947680000000     0.377080000000     0.753800000000    -0.202649   
N77      N      0.111100000000     0.713620000000     0.676310000000    -0.184854   
N78      N      0.069810000000     0.627760000000     0.702610000000    -0.20234    
N79      N      0.611630000000     0.711420000000     0.922520000000    -0.184433   
N80      N      0.569230000000     0.625580000000     0.948660000000    -0.203455   
N81      N      0.279460000000     0.046540000000     0.591540000000    -0.184493   
N82      N      0.239660000000     0.960030000000     0.616440000000    -0.202953   
N83      N      0.431930000000     0.378570000000     0.506050000000    -0.184251   
N84      N      0.387500000000     0.292640000000     0.532100000000    -0.203127   
N85      N      0.672780000000     0.810770000000     0.734430000000    -0.184566   
N86      N      0.669430000000     0.806330000000     0.801680000000    -0.204378   
N87      N      0.671440000000     0.863030000000     0.484430000000    -0.184017   
N88      N      0.667840000000     0.863990000000     0.551680000000    -0.204554   
N89      N      0.775010000000     0.732500000000     0.588750000000    -0.185418   
N90      N      0.733320000000     0.777820000000     0.612480000000    -0.203271   
N91      N      0.607190000000     0.898240000000     0.671550000000    -0.185303   
N92      N      0.561520000000     0.939240000000     0.696040000000    -0.20305    
N93      N      0.000770000000     0.528690000000     0.887040000000    -0.184963   
N94      N      0.004990000000     0.529950000000     0.819950000000    -0.204973   
N95      N      0.011820000000     0.480840000000     0.569810000000    -0.185321   
N96      N      0.012110000000     0.479760000000     0.637120000000    -0.204099   
N97      N      0.899100000000     0.609030000000     0.532480000000    -0.18485    
N98      N      0.941270000000     0.563930000000     0.509040000000    -0.202959   
N99      N      0.336850000000     0.143210000000     0.903590000000    -0.184626   
N100     N      0.332690000000     0.140440000000     0.970840000000    -0.20476    
N101     N      0.332450000000     0.194530000000     0.720380000000    -0.184853   
N102     N      0.334690000000     0.198660000000     0.653160000000    -0.204778   
N103     N      0.397410000000     0.106450000000     0.784560000000    -0.185233   
N104     N      0.443000000000     0.065020000000     0.760800000000    -0.203463   
N105     N      0.068620000000     0.445080000000     0.948980000000    -0.185266   
N106     N      0.113800000000     0.403750000000     0.924030000000    -0.202904   
N107     N      0.274110000000     0.230900000000     0.839820000000    -0.185396   
N108     N      0.230060000000     0.273290000000     0.864600000000    -0.203559   
N109     N      0.474920000000     0.480670000000     0.818030000000    -0.185708   
N110     N      0.472780000000     0.478480000000     0.885390000000    -0.203986   
N111     N      0.529480000000     0.529770000000     0.568300000000    -0.18521    
N112     N      0.534450000000     0.531340000000     0.635440000000    -0.205042   
N113     N      0.860270000000     0.194980000000     0.898410000000    -0.183253   
N114     N      0.861710000000     0.192250000000     0.965740000000    -0.206456   
N115     N      0.809870000000     0.134730000000     0.647720000000    -0.184339   
N116     N      0.812100000000     0.134550000000     0.715190000000    -0.203328   
N117     N      0.145870000000     0.341170000000     0.804280000000    -0.186085   
N118     N      0.145130000000     0.339960000000     0.736960000000    -0.204053   
N119     N      0.198610000000     0.337470000000     0.554240000000    -0.18576    
N120     N      0.199670000000     0.337770000000     0.486930000000    -0.204066   
N121     N      0.045500000000     0.275820000000     0.617420000000    -0.184221   
N122     N      0.959410000000     0.229320000000     0.591750000000    -0.202484   
N123     N      0.293940000000     0.395600000000     0.673300000000    -0.18441    
N124     N      0.381120000000     0.437760000000     0.697600000000    -0.202637   
N125     N      0.526500000000     0.994340000000     0.819750000000    -0.184898   
N126     N      0.528030000000     0.994910000000     0.887180000000    -0.203648   
N127     N      0.479710000000     0.006120000000     0.570180000000    -0.184758   
N128     N      0.477950000000     0.009500000000     0.637400000000    -0.204845   
N129     N      0.630820000000     0.055140000000     0.503500000000    -0.183648   
N130     N      0.718740000000     0.095580000000     0.522770000000    -0.207382   
N131     N      0.200410000000     0.861520000000     0.803870000000    -0.1846     
N132     N      0.201000000000     0.865470000000     0.736640000000    -0.204785   
N133     N      0.145670000000     0.808060000000     0.486900000000    -0.18483    
N134     N      0.147240000000     0.806010000000     0.554180000000    -0.204384   
N135     N      0.295740000000     0.902490000000     0.924820000000    -0.184099   
N136     N      0.381760000000     0.947240000000     0.951040000000    -0.203103   
N137     N      0.811470000000     0.671350000000     0.902180000000    -0.184987   
N138     N      0.811520000000     0.675020000000     0.969310000000    -0.205174   
N139     N      0.861450000000     0.665540000000     0.651990000000    -0.18534    
N140     N      0.862740000000     0.665610000000     0.719350000000    -0.203954   
N141     N      0.715340000000     0.614530000000     0.782150000000    -0.184372   
N142     N      0.628910000000     0.573770000000     0.756570000000    -0.202874   
N143     N      0.962430000000     0.724790000000     0.840070000000    -0.183648   
N144     N      0.048600000000     0.765950000000     0.866090000000    -0.202849   
O1       O      0.850650000000     0.635800000000     0.270560000000    -0.564003   
O2       O      0.818350000000     0.635690000000     0.357970000000    -0.558197   
O3       O      0.774710000000     0.609590000000     0.301560000000    -0.560294   
O4       O      0.895720000000     0.662640000000     0.327120000000    -0.55162    
O5       O      0.903240000000     0.729520000000     0.320090000000    -0.55748    
O6       O      0.782000000000     0.676500000000     0.295370000000    -0.55173    
O7       O      0.827650000000     0.703460000000     0.351770000000    -0.555539   
O8       O      0.858630000000     0.702840000000     0.263790000000    -0.55547    
O9       O      0.192930000000     0.819610000000     0.348780000000    -0.555818   
O10      O      0.160490000000     0.790080000000     0.436750000000    -0.557601   
O11      O      0.115560000000     0.770570000000     0.379970000000    -0.557679   
O12      O      0.236470000000     0.838420000000     0.405400000000    -0.558599   
O13      O      0.229400000000     0.898280000000     0.410820000000    -0.551537   
O14      O      0.108510000000     0.830270000000     0.385080000000    -0.558596   
O15      O      0.151970000000     0.849160000000     0.441800000000    -0.555993   
O16      O      0.184730000000     0.878880000000     0.353930000000    -0.556397   
O17      O      0.516840000000     0.966560000000     0.438980000000    -0.560454   
O18      O      0.484820000000     0.968930000000     0.026290000000    -0.558898   
O19      O      0.441400000000     0.942370000000     0.470020000000    -0.564213   
O20      O      0.561800000000     0.994010000000     0.996090000000    -0.554113   
O21      O      0.571950000000     0.061210000000     0.985050000000    -0.553111   
O22      O      0.449200000000     0.009350000000     0.464350000000    -0.553913   
O23      O      0.497990000000     0.038010000000     0.019570000000    -0.552577   
O24      O      0.523940000000     0.033060000000     0.430900000000    -0.554721   
O25      O      0.151990000000     0.303830000000     0.192770000000    -0.554492   
O26      O      0.182050000000     0.303920000000     0.104250000000    -0.554202   
O27      O      0.228380000000     0.332560000000     0.160260000000    -0.555888   
O28      O      0.106840000000     0.275220000000     0.137050000000    -0.562737   
O29      O      0.111160000000     0.340510000000     0.128870000000    -0.547781   
O30      O      0.232630000000     0.398290000000     0.155130000000    -0.556745   
O31      O      0.189720000000     0.371140000000     0.098640000000    -0.559586   
O32      O      0.155610000000     0.368940000000     0.185640000000    -0.56551    
O33      O      0.859010000000     0.150370000000     0.009460000000    -0.551896   
O34      O      0.827550000000     0.118730000000     0.097710000000    -0.553918   
O35      O      0.782610000000     0.099240000000     0.041030000000    -0.554394   
O36      O      0.903000000000     0.168330000000     0.066480000000    -0.563971   
O37      O      0.894070000000     0.226300000000     0.075870000000    -0.548341   
O38      O      0.776160000000     0.159920000000     0.042690000000    -0.55664    
O39      O      0.813910000000     0.174610000000     0.102450000000    -0.556256   
O40      O      0.854610000000     0.211430000000     0.017160000000    -0.56643    
O41      O      0.526060000000     0.490120000000     0.180980000000    -0.560792   
O42      O      0.491870000000     0.462270000000     0.268810000000    -0.55786    
O43      O      0.448070000000     0.442440000000     0.211680000000    -0.558613   
O44      O      0.568640000000     0.509490000000     0.237950000000    -0.560854   
O45      O      0.562270000000     0.569650000000     0.242180000000    -0.557379   
O46      O      0.441640000000     0.502590000000     0.215450000000    -0.558068   
O47      O      0.483930000000     0.521820000000     0.272490000000    -0.558669   
O48      O      0.518770000000     0.549970000000     0.184950000000    -0.561173   
O49      O      0.188810000000     0.373450000000     0.348910000000    -0.561482   
O50      O      0.219270000000     0.367910000000     0.435900000000    -0.566383   
O51      O      0.232690000000     0.338630000000     0.378830000000    -0.557971   
O52      O      0.175620000000     0.401790000000     0.405640000000    -0.568812   
O53      O      0.112060000000     0.338400000000     0.410920000000    -0.55568    
O54      O      0.169700000000     0.275100000000     0.386010000000    -0.566094   
O55      O      0.155820000000     0.304420000000     0.442480000000    -0.554569   
O56      O      0.126560000000     0.308240000000     0.354380000000    -0.556304   
O57      O      0.370360000000     0.185400000000     0.358590000000    -0.555778   
O58      O      0.365960000000     0.213280000000     0.270360000000    -0.556815   
O59      O      0.338290000000     0.230500000000     0.326810000000    -0.557873   
O60      O      0.397710000000     0.168870000000     0.302450000000    -0.563216   
O61      O      0.332680000000     0.106530000000     0.296790000000    -0.554273   
O62      O      0.273110000000     0.168220000000     0.321490000000    -0.560593   
O63      O      0.300150000000     0.151610000000     0.265250000000    -0.556856   
O64      O      0.304670000000     0.123620000000     0.353300000000    -0.556972   
O65      O      0.033440000000     0.549840000000     0.436980000000    -0.560657   
O66      O      0.042260000000     0.522680000000     0.024340000000    -0.559539   
O67      O      0.068210000000     0.507150000000     0.467210000000    -0.560087   
O68      O      0.006360000000     0.565690000000     0.994340000000    -0.554768   
O69      O      0.942370000000     0.502650000000     0.989100000000    -0.566871   
O70      O      0.003950000000     0.443520000000     0.463670000000    -0.554872   
O71      O      0.976770000000     0.460370000000     0.020490000000    -0.558068   
O72      O      0.969030000000     0.486510000000     0.432360000000    -0.555937   
O73      O      0.700410000000     0.883150000000     0.101870000000    -0.558115   
O74      O      0.705360000000     0.854200000000     0.189770000000    -0.555172   
O75      O      0.732880000000     0.839110000000     0.133080000000    -0.567077   
O76      O      0.672090000000     0.898970000000     0.158770000000    -0.555508   
O77      O      0.607420000000     0.836240000000     0.153070000000    -0.561543   
O78      O      0.668540000000     0.776570000000     0.127160000000    -0.555085   
O79      O      0.640140000000     0.792000000000     0.184200000000    -0.556347   
O80      O      0.634950000000     0.821200000000     0.096470000000    -0.558878   
O81      O      0.881500000000     0.700120000000     0.102480000000    -0.555302   
O82      O      0.854430000000     0.706690000000     0.014390000000    -0.559474   
O83      O      0.837650000000     0.732850000000     0.070850000000    -0.562881   
O84      O      0.899100000000     0.673370000000     0.045610000000    -0.553969   
O85      O      0.836230000000     0.608580000000     0.050060000000    -0.561803   
O86      O      0.774930000000     0.668040000000     0.075920000000    -0.556448   
O87      O      0.792090000000     0.641470000000     0.019030000000    -0.56207    
O88      O      0.819530000000     0.634390000000     0.106640000000    -0.560176   
O89      O      0.547270000000     0.029290000000     0.270410000000    -0.557023   
O90      O      0.520340000000     0.039690000000     0.182970000000    -0.558791   
O91      O      0.504650000000     0.064550000000     0.240570000000    -0.56735    
O92      O      0.563310000000     0.003490000000     0.212490000000    -0.555477   
O93      O      0.499830000000     0.939640000000     0.216350000000    -0.565968   
O94      O      0.441310000000     0.000650000000     0.244880000000    -0.556862   
O95      O      0.457180000000     0.975160000000     0.186920000000    -0.560705   
O96      O      0.484410000000     0.964330000000     0.274130000000    -0.555813   
O97      O      0.297900000000     0.148090000000     0.015570000000    -0.557309   
O98      O      0.300900000000     0.181690000000     0.103320000000    -0.557071   
O99      O      0.325570000000     0.225690000000     0.046210000000    -0.556332   
O100     O      0.273630000000     0.105390000000     0.072470000000    -0.558298   
O101     O      0.341060000000     0.113320000000     0.077970000000    -0.553321   
O102     O      0.392740000000     0.233370000000     0.051300000000    -0.56143    
O103     O      0.369020000000     0.191150000000     0.108270000000    -0.560745   
O104     O      0.365760000000     0.157010000000     0.020840000000    -0.559628   
O105     O      0.486610000000     0.522330000000     0.024070000000    -0.558169   
O106     O      0.454710000000     0.490320000000     0.436580000000    -0.564175   
O107     O      0.436270000000     0.445170000000     0.993130000000    -0.551154   
O108     O      0.504510000000     0.566020000000     0.467670000000    -0.559953   
O109     O      0.563900000000     0.558390000000     0.461720000000    -0.560222   
O110     O      0.495780000000     0.437630000000     0.986200000000    -0.559744   
O111     O      0.513850000000     0.482230000000     0.429990000000    -0.556851   
O112     O      0.545190000000     0.512950000000     0.018020000000    -0.557599   
O113     O      0.158470000000     0.855930000000     0.191650000000    -0.558513   
O114     O      0.129330000000     0.821700000000     0.103990000000    -0.557175   
O115     O      0.111490000000     0.777690000000     0.161020000000    -0.547822   
O116     O      0.175870000000     0.898630000000     0.134780000000    -0.557536   
O117     O      0.237120000000     0.894090000000     0.129630000000    -0.560326   
O118     O      0.173500000000     0.774030000000     0.156310000000    -0.563052   
O119     O      0.190120000000     0.815910000000     0.099130000000    -0.559769   
O120     O      0.219600000000     0.850720000000     0.186750000000    -0.559907   
O121     O      0.973760000000     0.514540000000     0.269380000000    -0.557399   
O122     O      0.975470000000     0.485440000000     0.181250000000    -0.556259   
O123     O      0.945750000000     0.439250000000     0.236600000000    -0.551871   
O124     O      0.004750000000     0.561920000000     0.213880000000    -0.546044   
O125     O      0.069620000000     0.565250000000     0.221100000000    -0.573835   
O126     O      0.011370000000     0.444100000000     0.244010000000    -0.563844   
O127     O      0.041390000000     0.490510000000     0.188500000000    -0.565791   
O128     O      0.040220000000     0.520570000000     0.276440000000    -0.562993   
O129     O      0.819590000000     0.185950000000     0.352320000000    -0.553225   
O130     O      0.792920000000     0.150570000000     0.264530000000    -0.554566   
O131     O      0.775040000000     0.107580000000     0.322230000000    -0.548813   
O132     O      0.837550000000     0.228360000000     0.294950000000    -0.551036   
O133     O      0.899720000000     0.224840000000     0.291160000000    -0.557073   
O134     O      0.837550000000     0.105180000000     0.318220000000    -0.568985   
O135     O      0.854710000000     0.146440000000     0.260800000000    -0.55752    
O136     O      0.881690000000     0.182300000000     0.348660000000    -0.555458   
O137     O      0.639030000000     0.848700000000     0.434090000000    -0.553105   
O138     O      0.635270000000     0.814630000000     0.346410000000    -0.55688    
O139     O      0.608880000000     0.771950000000     0.403250000000    -0.556934   
O140     O      0.666210000000     0.892810000000     0.376930000000    -0.547739   
O141     O      0.731930000000     0.897100000000     0.383530000000    -0.561987   
O142     O      0.674840000000     0.776380000000     0.408530000000    -0.555821   
O143     O      0.702170000000     0.821170000000     0.351850000000    -0.557539   
O144     O      0.705240000000     0.853710000000     0.439860000000    -0.555768   
O145     O      0.850650000000     0.635800000000     0.770560000000    -0.563994   
O146     O      0.818350000000     0.635690000000     0.857970000000    -0.558198   
O147     O      0.774710000000     0.609590000000     0.801560000000    -0.560293   
O148     O      0.895720000000     0.662640000000     0.827120000000    -0.551618   
O149     O      0.903240000000     0.729520000000     0.820090000000    -0.55748    
O150     O      0.782000000000     0.676500000000     0.795370000000    -0.551731   
O151     O      0.827650000000     0.703460000000     0.851770000000    -0.55554    
O152     O      0.858630000000     0.702840000000     0.763790000000    -0.555472   
O153     O      0.192930000000     0.819610000000     0.848780000000    -0.555888   
O154     O      0.160490000000     0.790070000000     0.936750000000    -0.557361   
O155     O      0.115560000000     0.770570000000     0.879970000000    -0.557644   
O156     O      0.236470000000     0.838420000000     0.905400000000    -0.558489   
O157     O      0.229390000000     0.898280000000     0.910820000000    -0.551507   
O158     O      0.108510000000     0.830270000000     0.885080000000    -0.558602   
O159     O      0.151970000000     0.849160000000     0.941800000000    -0.556067   
O160     O      0.184730000000     0.878880000000     0.853930000000    -0.556331   
O161     O      0.516840000000     0.966560000000     0.938980000000    -0.560378   
O162     O      0.484820000000     0.968930000000     0.526280000000    -0.559117   
O163     O      0.441400000000     0.942370000000     0.970020000000    -0.564176   
O164     O      0.561800000000     0.994010000000     0.496090000000    -0.554189   
O165     O      0.571950000000     0.061210000000     0.485060000000    -0.553143   
O166     O      0.449200000000     0.009350000000     0.964350000000    -0.553925   
O167     O      0.497990000000     0.038010000000     0.519570000000    -0.552607   
O168     O      0.523940000000     0.033060000000     0.930900000000    -0.554695   
O169     O      0.151990000000     0.303830000000     0.692770000000    -0.55433    
O170     O      0.182050000000     0.303920000000     0.604250000000    -0.554356   
O171     O      0.228380000000     0.332560000000     0.660260000000    -0.555841   
O172     O      0.106840000000     0.275220000000     0.637050000000    -0.562775   
O173     O      0.111160000000     0.340510000000     0.628870000000    -0.547782   
O174     O      0.232630000000     0.398290000000     0.655130000000    -0.556734   
O175     O      0.189720000000     0.371140000000     0.598640000000    -0.559609   
O176     O      0.155610000000     0.368940000000     0.685640000000    -0.565483   
O177     O      0.859010000000     0.150370000000     0.509460000000    -0.551974   
O178     O      0.827550000000     0.118730000000     0.597710000000    -0.553889   
O179     O      0.782610000000     0.099240000000     0.541030000000    -0.554348   
O180     O      0.903000000000     0.168330000000     0.566480000000    -0.56397    
O181     O      0.894070000000     0.226300000000     0.575870000000    -0.548339   
O182     O      0.776150000000     0.159920000000     0.542690000000    -0.556474   
O183     O      0.813910000000     0.174610000000     0.602450000000    -0.556148   
O184     O      0.854610000000     0.211430000000     0.517170000000    -0.566612   
O185     O      0.526060000000     0.490120000000     0.680970000000    -0.560426   
O186     O      0.491870000000     0.462270000000     0.768810000000    -0.557928   
O187     O      0.448070000000     0.442440000000     0.711680000000    -0.558476   
O188     O      0.568650000000     0.509490000000     0.737950000000    -0.560678   
O189     O      0.562270000000     0.569650000000     0.742180000000    -0.557411   
O190     O      0.441640000000     0.502590000000     0.715450000000    -0.558105   
O191     O      0.483930000000     0.521820000000     0.772490000000    -0.558745   
O192     O      0.518770000000     0.549970000000     0.684960000000    -0.561287   
O193     O      0.188810000000     0.373450000000     0.848910000000    -0.561482   
O194     O      0.219270000000     0.367910000000     0.935900000000    -0.566401   
O195     O      0.232690000000     0.338630000000     0.878830000000    -0.557974   
O196     O      0.175620000000     0.401790000000     0.905640000000    -0.568838   
O197     O      0.112060000000     0.338400000000     0.910920000000    -0.555702   
O198     O      0.169700000000     0.275100000000     0.886010000000    -0.566098   
O199     O      0.155820000000     0.304420000000     0.942480000000    -0.554588   
O200     O      0.126560000000     0.308240000000     0.854380000000    -0.556304   
O201     O      0.370360000000     0.185400000000     0.858590000000    -0.55579    
O202     O      0.365950000000     0.213280000000     0.770360000000    -0.556917   
O203     O      0.338290000000     0.230500000000     0.826810000000    -0.557886   
O204     O      0.397710000000     0.168870000000     0.802450000000    -0.563244   
O205     O      0.332680000000     0.106530000000     0.796790000000    -0.554306   
O206     O      0.273110000000     0.168220000000     0.821490000000    -0.560717   
O207     O      0.300150000000     0.151620000000     0.765250000000    -0.557053   
O208     O      0.304670000000     0.123620000000     0.853300000000    -0.556973   
O209     O      0.033440000000     0.549840000000     0.936980000000    -0.560678   
O210     O      0.042260000000     0.522680000000     0.524340000000    -0.5596     
O211     O      0.068200000000     0.507140000000     0.967210000000    -0.560148   
O212     O      0.006360000000     0.565690000000     0.494340000000    -0.554755   
O213     O      0.942370000000     0.502650000000     0.489100000000    -0.56686    
O214     O      0.003950000000     0.443520000000     0.963670000000    -0.554925   
O215     O      0.976770000000     0.460370000000     0.520490000000    -0.558131   
O216     O      0.969030000000     0.486510000000     0.932360000000    -0.555958   
O217     O      0.700410000000     0.883150000000     0.601870000000    -0.558057   
O218     O      0.705370000000     0.854210000000     0.689770000000    -0.555012   
O219     O      0.732890000000     0.839110000000     0.633070000000    -0.56691    
O220     O      0.672090000000     0.898970000000     0.658760000000    -0.555501   
O221     O      0.607420000000     0.836240000000     0.653070000000    -0.561531   
O222     O      0.668540000000     0.776570000000     0.627160000000    -0.555099   
O223     O      0.640140000000     0.792000000000     0.684200000000    -0.556289   
O224     O      0.634950000000     0.821200000000     0.596470000000    -0.55887    
O225     O      0.881500000000     0.700120000000     0.602480000000    -0.555229   
O226     O      0.854430000000     0.706690000000     0.514390000000    -0.559464   
O227     O      0.837650000000     0.732850000000     0.570850000000    -0.562862   
O228     O      0.899100000000     0.673370000000     0.545610000000    -0.553954   
O229     O      0.836230000000     0.608580000000     0.550060000000    -0.561804   
O230     O      0.774930000000     0.668040000000     0.575920000000    -0.556407   
O231     O      0.792080000000     0.641470000000     0.519030000000    -0.561982   
O232     O      0.819530000000     0.634400000000     0.606640000000    -0.560193   
O233     O      0.547270000000     0.029290000000     0.770410000000    -0.556987   
O234     O      0.520340000000     0.039690000000     0.682970000000    -0.558744   
O235     O      0.504650000000     0.064550000000     0.740570000000    -0.567318   
O236     O      0.563310000000     0.003490000000     0.712490000000    -0.555474   
O237     O      0.499830000000     0.939640000000     0.716350000000    -0.566065   
O238     O      0.441310000000     0.000650000000     0.744880000000    -0.556713   
O239     O      0.457170000000     0.975160000000     0.686920000000    -0.560536   
O240     O      0.484410000000     0.964330000000     0.774130000000    -0.555884   
O241     O      0.297900000000     0.148090000000     0.515570000000    -0.557329   
O242     O      0.300900000000     0.181690000000     0.603320000000    -0.557066   
O243     O      0.325570000000     0.225690000000     0.546210000000    -0.556335   
O244     O      0.273630000000     0.105390000000     0.572470000000    -0.558308   
O245     O      0.341060000000     0.113320000000     0.577980000000    -0.553271   
O246     O      0.392740000000     0.233370000000     0.551300000000    -0.561417   
O247     O      0.369020000000     0.191150000000     0.608270000000    -0.560716   
O248     O      0.365760000000     0.157010000000     0.520840000000    -0.55964    
O249     O      0.486600000000     0.522320000000     0.524070000000    -0.558233   
O250     O      0.454700000000     0.490320000000     0.936580000000    -0.563992   
O251     O      0.436270000000     0.445170000000     0.493130000000    -0.551033   
O252     O      0.504510000000     0.566020000000     0.967680000000    -0.559933   
O253     O      0.563900000000     0.558390000000     0.961720000000    -0.560189   
O254     O      0.495780000000     0.437630000000     0.486200000000    -0.559738   
O255     O      0.513850000000     0.482230000000     0.929990000000    -0.556775   
O256     O      0.545190000000     0.512950000000     0.518020000000    -0.557656   
O257     O      0.158470000000     0.855930000000     0.691650000000    -0.558471   
O258     O      0.129330000000     0.821700000000     0.603990000000    -0.55717    
O259     O      0.111490000000     0.777690000000     0.661020000000    -0.547798   
O260     O      0.175870000000     0.898630000000     0.634780000000    -0.557527   
O261     O      0.237120000000     0.894090000000     0.629630000000    -0.560374   
O262     O      0.173500000000     0.774030000000     0.656300000000    -0.563109   
O263     O      0.190120000000     0.815910000000     0.599130000000    -0.559821   
O264     O      0.219600000000     0.850720000000     0.686740000000    -0.560033   
O265     O      0.973760000000     0.514540000000     0.769380000000    -0.557409   
O266     O      0.975470000000     0.485440000000     0.681250000000    -0.556255   
O267     O      0.945750000000     0.439250000000     0.736600000000    -0.551832   
O268     O      0.004750000000     0.561920000000     0.713880000000    -0.546043   
O269     O      0.069620000000     0.565250000000     0.721100000000    -0.573835   
O270     O      0.011370000000     0.444100000000     0.744010000000    -0.563844   
O271     O      0.041390000000     0.490510000000     0.688500000000    -0.565785   
O272     O      0.040220000000     0.520570000000     0.776440000000    -0.562994   
O273     O      0.819590000000     0.185950000000     0.852320000000    -0.553221   
O274     O      0.792920000000     0.150570000000     0.764530000000    -0.554567   
O275     O      0.775040000000     0.107580000000     0.822230000000    -0.54872    
O276     O      0.837550000000     0.228360000000     0.794950000000    -0.551015   
O277     O      0.899720000000     0.224840000000     0.791160000000    -0.55707    
O278     O      0.837550000000     0.105180000000     0.818220000000    -0.569085   
O279     O      0.854710000000     0.146440000000     0.760800000000    -0.557524   
O280     O      0.881690000000     0.182300000000     0.848660000000    -0.555462   
O281     O      0.639030000000     0.848700000000     0.934090000000    -0.553327   
O282     O      0.635270000000     0.814630000000     0.846410000000    -0.556718   
O283     O      0.608880000000     0.771950000000     0.903250000000    -0.556977   
O284     O      0.666210000000     0.892810000000     0.876930000000    -0.547691   
O285     O      0.731930000000     0.897100000000     0.883530000000    -0.56198    
O286     O      0.674840000000     0.776380000000     0.908530000000    -0.555823   
O287     O      0.702170000000     0.821170000000     0.851850000000    -0.557512   
O288     O      0.705240000000     0.853710000000     0.939860000000    -0.555838   
V1       V      0.834690000000     0.633350000000     0.314600000000     1.39517    
V2       V      0.843140000000     0.705730000000     0.307460000000     1.38782    
V3       V      0.176550000000     0.802260000000     0.392480000000     1.38623    
V4       V      0.168440000000     0.866550000000     0.398140000000     1.38975    
V5       V      0.501050000000     0.965390000000     0.483160000000     1.39781    
V6       V      0.511050000000     0.038120000000     0.974750000000     1.37503    
V7       V      0.167190000000     0.301300000000     0.148870000000     1.39343    
V8       V      0.172310000000     0.372250000000     0.141770000000     1.38649    
V9       V      0.843430000000     0.131800000000     0.053340000000     1.38279    
V10      V      0.834390000000     0.195450000000     0.059930000000     1.38929    
V11      V      0.508830000000     0.473650000000     0.224650000000     1.38739    
V12      V      0.501490000000     0.538450000000     0.228960000000     1.38864    
V13      V      0.206660000000     0.372880000000     0.392070000000     1.40141    
V14      V      0.138450000000     0.304020000000     0.398760000000     1.3874     
V15      V      0.370620000000     0.202010000000     0.314770000000     1.39853    
V16      V      0.300130000000     0.134960000000     0.308960000000     1.39317    
V17      V      0.040050000000     0.538920000000     0.480930000000     1.39688    
V18      V      0.970510000000     0.470720000000     0.976180000000     1.3933     
V19      V      0.705190000000     0.871390000000     0.146150000000     1.39355    
V20      V      0.635250000000     0.803950000000     0.140010000000     1.38962    
V21      V      0.870730000000     0.705790000000     0.058120000000     1.39119    
V22      V      0.803170000000     0.635600000000     0.063120000000     1.4017     
V23      V      0.536470000000     0.036750000000     0.226430000000     1.38981    
V24      V      0.468120000000     0.967450000000     0.230760000000     1.39348    
V25      V      0.296860000000     0.164990000000     0.059150000000     1.38088    
V26      V      0.369750000000     0.173920000000     0.064850000000     1.39343    
V27      V      0.468080000000     0.506120000000     0.980660000000     1.38811    
V28      V      0.532040000000     0.497510000000     0.473700000000     1.39245    
V29      V      0.141280000000     0.838580000000     0.148080000000     1.38269    
V30      V      0.207530000000     0.833590000000     0.142670000000     1.3927     
V31      V      0.972290000000     0.500170000000     0.224970000000     1.37316    
V32      V      0.043090000000     0.505100000000     0.232870000000     1.4033     
V33      V      0.803740000000     0.168200000000     0.308620000000     1.37383    
V34      V      0.870880000000     0.164670000000     0.304480000000     1.39482    
V35      V      0.634770000000     0.831950000000     0.389900000000     1.37795    
V36      V      0.706080000000     0.837150000000     0.396180000000     1.39852    
V37      V      0.834690000000     0.633350000000     0.814600000000     1.39517    
V38      V      0.843140000000     0.705730000000     0.807460000000     1.38783    
V39      V      0.176550000000     0.802260000000     0.892480000000     1.38608    
V40      V      0.168440000000     0.866550000000     0.898140000000     1.38989    
V41      V      0.501050000000     0.965390000000     0.983160000000     1.39738    
V42      V      0.511050000000     0.038120000000     0.474750000000     1.37502    
V43      V      0.167190000000     0.301300000000     0.648860000000     1.39342    
V44      V      0.172310000000     0.372250000000     0.641770000000     1.38646    
V45      V      0.843430000000     0.131800000000     0.553340000000     1.38277    
V46      V      0.834390000000     0.195450000000     0.559930000000     1.38933    
V47      V      0.508830000000     0.473650000000     0.724660000000     1.38678    
V48      V      0.501490000000     0.538450000000     0.728960000000     1.38901    
V49      V      0.206660000000     0.372880000000     0.892070000000     1.40142    
V50      V      0.138450000000     0.304020000000     0.898760000000     1.3874     
V51      V      0.370620000000     0.202010000000     0.814770000000     1.39861    
V52      V      0.300120000000     0.134960000000     0.808960000000     1.39325    
V53      V      0.040050000000     0.538920000000     0.980930000000     1.39681    
V54      V      0.970510000000     0.470720000000     0.476180000000     1.39334    
V55      V      0.705190000000     0.871390000000     0.646150000000     1.3933     
V56      V      0.635250000000     0.803950000000     0.640010000000     1.38962    
V57      V      0.870730000000     0.705790000000     0.558120000000     1.39116    
V58      V      0.803170000000     0.635600000000     0.563120000000     1.40166    
V59      V      0.536470000000     0.036750000000     0.726430000000     1.3897     
V60      V      0.468130000000     0.967450000000     0.730760000000     1.39337    
V61      V      0.296860000000     0.164990000000     0.559150000000     1.38088    
V62      V      0.369750000000     0.173920000000     0.564850000000     1.39333    
V63      V      0.468080000000     0.506120000000     0.480660000000     1.38826    
V64      V      0.532040000000     0.497510000000     0.973700000000     1.39232    
V65      V      0.141280000000     0.838580000000     0.648080000000     1.3826     
V66      V      0.207530000000     0.833590000000     0.642670000000     1.39308    
V67      V      0.972290000000     0.500170000000     0.724970000000     1.37316    
V68      V      0.043090000000     0.505100000000     0.732870000000     1.40331    
V69      V      0.803740000000     0.168200000000     0.808620000000     1.37379    
V70      V      0.870880000000     0.164670000000     0.804480000000     1.39486    
V71      V      0.634770000000     0.831950000000     0.889910000000     1.37794    
V72      V      0.706080000000     0.837150000000     0.896180000000     1.39848    


