data_structure

_audit_creation_method RASPA-1.0
_audit_creation_date 2023-5-19
_audit_author_name 'Poobodin Mano'

_cell_length_a    42.227
_cell_length_b    42.1951
_cell_length_c    42.2406
_cell_angle_alpha 90
_cell_angle_beta  90
_cell_angle_gamma 90
_cell_volume      75263.1

_symmetry_cell_setting          triclinic
_symmetry_space_group_name_Hall 'P 1'
_symmetry_space_group_name_H-M  'P 1'
_symmetry_Int_Tables_number     1

_symmetry_equiv_pos_as_xyz 'x,y,z'

loop_
_atom_site_label
_atom_site_type_symbol
_atom_site_fract_x
_atom_site_fract_y
_atom_site_fract_z
_atom_site_charge
C1       C      0.496310000000     0.060620000000     0.254440000000     0.474502   
C2       C      0.504120000000     0.440730000000     0.248400000000     0.474934   
C3       C      0.440150000000     0.497910000000     0.253280000000     0.480956   
C4       C      0.059770000000     0.504120000000     0.249200000000     0.477736   
C5       C      0.506490000000     0.310380000000     0.249060000000     0.479191   
C6       C      0.496860000000     0.190970000000     0.256080000000     0.481147   
C7       C      0.004290000000     0.247810000000     0.192610000000     0.48113    
C8       C      0.999220000000     0.253890000000     0.312170000000     0.473649   
C9       C      0.190090000000     0.504350000000     0.247860000000     0.480632   
C10      C      0.309820000000     0.500240000000     0.254120000000     0.476691   
C11      C      0.252880000000     0.000370000000     0.191450000000     0.470222   
C12      C      0.246620000000     0.004460000000     0.311110000000     0.47558    
C13      C      0.252510000000     0.001120000000     0.061160000000     0.478382   
C14      C      0.248590000000     0.004710000000     0.441400000000     0.476397   
C15      C      0.248980000000     0.062460000000     0.503480000000     0.477926   
C16      C      0.252090000000     0.442720000000     0.499630000000     0.481005   
C17      C      0.003670000000     0.254150000000     0.062290000000     0.478409   
C18      C      0.996910000000     0.255570000000     0.442460000000     0.47738    
C19      C      0.060270000000     0.256940000000     0.498730000000     0.476917   
C20      C      0.440570000000     0.252150000000     0.505640000000     0.478709   
C21      C      0.190450000000     0.254630000000     0.997930000000     0.489028   
C22      C      0.310160000000     0.250160000000     0.003000000000     0.468192   
C23      C      0.248410000000     0.192670000000     0.503020000000     0.481979   
C24      C      0.252300000000     0.312280000000     0.498440000000     0.478253   
C25      C      0.359790000000     0.233140000000     0.482640000000     0.0292315  
C26      C      0.357840000000     0.266350000000     0.027540000000     0.0168525  
C27      C      0.392840000000     0.232550000000     0.484570000000     0.0316699  
C28      C      0.390900000000     0.268010000000     0.027930000000     0.0690291  
C29      C      0.109480000000     0.279660000000     0.013530000000     0.0264278  
C30      C      0.108100000000     0.235340000000     0.479420000000     0.0192487  
C31      C      0.142500000000     0.277610000000     0.014650000000     0.0294773  
C32      C      0.141190000000     0.235070000000     0.478070000000     0.0702072  
C33      C      0.268700000000     0.361380000000     0.475760000000     0.031007   
C34      C      0.235810000000     0.360530000000     0.020950000000     0.0138321  
C35      C      0.270090000000     0.394510000000     0.477600000000     0.0327172  
C36      C      0.235210000000     0.393490000000     0.021530000000     0.0665076  
C37      C      0.224820000000     0.111110000000     0.989310000000     0.0366918  
C38      C      0.271680000000     0.111060000000     0.019860000000     0.0183465  
C39      C      0.225810000000     0.144120000000     0.988000000000     0.0382631  
C40      C      0.271240000000     0.144180000000     0.020930000000     0.0681956  
C41      C      0.268990000000     0.522600000000     0.392160000000     0.0307084  
C42      C      0.224530000000     0.488700000000     0.393430000000     0.0179024  
C43      C      0.267080000000     0.523810000000     0.359160000000     0.0327871  
C44      C      0.224210000000     0.487640000000     0.360350000000     0.0703005  
C45      C      0.235150000000     0.479220000000     0.142670000000     0.0314506  
C46      C      0.272700000000     0.020660000000     0.143210000000     0.0159085  
C47      C      0.233630000000     0.481210000000     0.109700000000     0.0324743  
C48      C      0.273610000000     0.020570000000     0.110070000000     0.0704787  
C49      C      0.020950000000     0.239620000000     0.361710000000     0.0324793  
C50      C      0.474320000000     0.270470000000     0.359950000000     0.0176086  
C51      C      0.019390000000     0.239040000000     0.394600000000     0.0351327  
C52      C      0.474180000000     0.272230000000     0.393160000000     0.0689175  
C53      C      0.521000000000     0.227640000000     0.142920000000     0.0324204  
C54      C      0.490960000000     0.274620000000     0.145990000000     0.0204727  
C55      C      0.519210000000     0.228820000000     0.109840000000     0.0300491  
C56      C      0.492150000000     0.277910000000     0.113150000000     0.0677014  
C57      C      0.108850000000     0.486970000000     0.269420000000     0.0314866  
C58      C      0.107790000000     0.022430000000     0.226190000000     0.0185477  
C59      C      0.141700000000     0.485950000000     0.267770000000     0.0322634  
C60      C      0.141030000000     0.023860000000     0.226440000000     0.0684739  
C61      C      0.358360000000     0.475550000000     0.268990000000     0.0306722  
C62      C      0.358670000000     0.023360000000     0.239930000000     0.0153497  
C63      C      0.391510000000     0.476170000000     0.270150000000     0.0331271  
C64      C      0.391670000000     0.022720000000     0.238800000000     0.0678686  
C65      C      0.492810000000     0.391540000000     0.223450000000     0.0300719  
C66      C      0.022870000000     0.392640000000     0.270560000000     0.0193234  
C67      C      0.492520000000     0.358440000000     0.224580000000     0.0338407  
C68      C      0.024880000000     0.359500000000     0.270360000000     0.0691063  
C69      C      0.480720000000     0.110020000000     0.232370000000     0.0286592  
C70      C      0.007770000000     0.108740000000     0.281270000000     0.0190763  
C71      C      0.479290000000     0.143050000000     0.233980000000     0.0329824  
C72      C      0.008810000000     0.141930000000     0.281610000000     0.0719974  
C73      C      0.496310000000     0.060620000000     0.754440000000     0.474454   
C74      C      0.504120000000     0.440730000000     0.748400000000     0.474875   
C75      C      0.440150000000     0.497910000000     0.753280000000     0.480894   
C76      C      0.059770000000     0.504120000000     0.749200000000     0.477677   
C77      C      0.506490000000     0.310380000000     0.749070000000     0.479188   
C78      C      0.496860000000     0.190970000000     0.756080000000     0.481147   
C79      C      0.004290000000     0.247810000000     0.692610000000     0.481132   
C80      C      0.999220000000     0.253890000000     0.812170000000     0.473677   
C81      C      0.190090000000     0.504350000000     0.747860000000     0.480629   
C82      C      0.309820000000     0.500240000000     0.754120000000     0.476714   
C83      C      0.252880000000     0.000370000000     0.691450000000     0.470256   
C84      C      0.246620000000     0.004460000000     0.811110000000     0.475628   
C85      C      0.252510000000     0.001120000000     0.561160000000     0.479248   
C86      C      0.248590000000     0.004710000000     0.941400000000     0.474958   
C87      C      0.248980000000     0.062460000000     0.003480000000     0.476621   
C88      C      0.252090000000     0.442720000000     0.999630000000     0.487947   
C89      C      0.003670000000     0.254150000000     0.562290000000     0.479336   
C90      C      0.996910000000     0.255570000000     0.942450000000     0.475912   
C91      C      0.060270000000     0.256940000000     0.998730000000     0.483649   
C92      C      0.440570000000     0.252150000000     0.005640000000     0.477385   
C93      C      0.190450000000     0.254630000000     0.497930000000     0.481063   
C94      C      0.310160000000     0.250160000000     0.503000000000     0.475906   
C95      C      0.248410000000     0.192670000000     0.003020000000     0.474077   
C96      C      0.252300000000     0.312280000000     0.998440000000     0.486324   
C97      C      0.359790000000     0.233140000000     0.982640000000     0.0339241  
C98      C      0.357840000000     0.266350000000     0.527540000000     0.0181223  
C99      C      0.392840000000     0.232550000000     0.984570000000     0.0370678  
C100     C      0.390900000000     0.268010000000     0.527930000000     0.0696635  
C101     C      0.109480000000     0.279660000000     0.513530000000     0.0310969  
C102     C      0.108100000000     0.235340000000     0.979420000000     0.0204947  
C103     C      0.142500000000     0.277610000000     0.514650000000     0.0341503  
C104     C      0.141190000000     0.235070000000     0.978070000000     0.0711788  
C105     C      0.268700000000     0.361380000000     0.975760000000     0.0322851  
C106     C      0.235810000000     0.360530000000     0.520950000000     0.0185635  
C107     C      0.270090000000     0.394510000000     0.977600000000     0.0340281  
C108     C      0.235210000000     0.393490000000     0.521530000000     0.0703599  
C109     C      0.224820000000     0.111110000000     0.489310000000     0.031315   
C110     C      0.271680000000     0.111060000000     0.519860000000     0.019296   
C111     C      0.225810000000     0.144120000000     0.488000000000     0.033637   
C112     C      0.271240000000     0.144180000000     0.520930000000     0.0692776  
C113     C      0.268990000000     0.522600000000     0.892160000000     0.0308498  
C114     C      0.224530000000     0.488700000000     0.893430000000     0.0180229  
C115     C      0.267080000000     0.523810000000     0.859160000000     0.0330063  
C116     C      0.224210000000     0.487640000000     0.860350000000     0.0704386  
C117     C      0.235150000000     0.479220000000     0.642670000000     0.0314879  
C118     C      0.272700000000     0.020660000000     0.643210000000     0.0159616  
C119     C      0.233630000000     0.481210000000     0.609700000000     0.0326779  
C120     C      0.273610000000     0.020570000000     0.610080000000     0.0705574  
C121     C      0.020950000000     0.239620000000     0.861710000000     0.0326488  
C122     C      0.474320000000     0.270470000000     0.859950000000     0.0178132  
C123     C      0.019390000000     0.239040000000     0.894600000000     0.0352832  
C124     C      0.474180000000     0.272230000000     0.893160000000     0.0688783  
C125     C      0.521000000000     0.227640000000     0.642920000000     0.0324918  
C126     C      0.490960000000     0.274620000000     0.645990000000     0.0205178  
C127     C      0.519210000000     0.228820000000     0.609840000000     0.0302412  
C128     C      0.492150000000     0.277910000000     0.613150000000     0.0677028  
C129     C      0.108850000000     0.486970000000     0.769420000000     0.0315339  
C130     C      0.107790000000     0.022430000000     0.726190000000     0.0186013  
C131     C      0.141700000000     0.485950000000     0.767770000000     0.032315   
C132     C      0.141030000000     0.023860000000     0.726440000000     0.0684777  
C133     C      0.358360000000     0.475550000000     0.768990000000     0.0307241  
C134     C      0.358670000000     0.023360000000     0.739930000000     0.0154424  
C135     C      0.391510000000     0.476170000000     0.770150000000     0.0332605  
C136     C      0.391670000000     0.022720000000     0.738800000000     0.0678691  
C137     C      0.492810000000     0.391540000000     0.723450000000     0.0300962  
C138     C      0.022870000000     0.392640000000     0.770560000000     0.0193823  
C139     C      0.492520000000     0.358440000000     0.724580000000     0.0338935  
C140     C      0.024880000000     0.359500000000     0.770360000000     0.0690916  
C141     C      0.480720000000     0.110020000000     0.732380000000     0.0287908  
C142     C      0.007770000000     0.108740000000     0.781270000000     0.0191831  
C143     C      0.479290000000     0.143050000000     0.733980000000     0.0329749  
C144     C      0.008810000000     0.141930000000     0.781610000000     0.0719834  
C145     C      0.496310000000     0.560620000000     0.254440000000     0.474195   
C146     C      0.504120000000     0.940730000000     0.248400000000     0.475068   
C147     C      0.440150000000     0.997910000000     0.253280000000     0.485722   
C148     C      0.059770000000     0.004120000000     0.249200000000     0.477843   
C149     C      0.506490000000     0.810380000000     0.249060000000     0.479179   
C150     C      0.496860000000     0.690970000000     0.256080000000     0.481162   
C151     C      0.004290000000     0.747810000000     0.192610000000     0.481087   
C152     C      0.999220000000     0.753890000000     0.312170000000     0.473705   
C153     C      0.190090000000     0.004350000000     0.247860000000     0.476157   
C154     C      0.309820000000     0.000240000000     0.254120000000     0.469261   
C155     C      0.252880000000     0.500370000000     0.191450000000     0.477738   
C156     C      0.246620000000     0.504460000000     0.311110000000     0.480119   
C157     C      0.252510000000     0.501120000000     0.061160000000     0.478931   
C158     C      0.248590000000     0.504710000000     0.441400000000     0.477019   
C159     C      0.248980000000     0.562460000000     0.503480000000     0.478245   
C160     C      0.252090000000     0.942720000000     0.499630000000     0.48043    
C161     C      0.003670000000     0.754150000000     0.062290000000     0.478395   
C162     C      0.996910000000     0.755570000000     0.442460000000     0.477379   
C163     C      0.060270000000     0.756950000000     0.498730000000     0.476904   
C164     C      0.440570000000     0.752150000000     0.505640000000     0.478683   
C165     C      0.190450000000     0.754640000000     0.997930000000     0.489004   
C166     C      0.310160000000     0.750170000000     0.003000000000     0.468225   
C167     C      0.248410000000     0.692670000000     0.503020000000     0.481985   
C168     C      0.252300000000     0.812280000000     0.498440000000     0.478276   
C169     C      0.359790000000     0.733140000000     0.482640000000     0.0292417  
C170     C      0.357840000000     0.766350000000     0.027540000000     0.0169012  
C171     C      0.392840000000     0.732550000000     0.484570000000     0.0317401  
C172     C      0.390900000000     0.768010000000     0.027930000000     0.0689868  
C173     C      0.109480000000     0.779650000000     0.013530000000     0.0265524  
C174     C      0.108100000000     0.735340000000     0.479420000000     0.0192831  
C175     C      0.142500000000     0.777610000000     0.014650000000     0.0294686  
C176     C      0.141190000000     0.735070000000     0.478070000000     0.0702245  
C177     C      0.268700000000     0.861380000000     0.475760000000     0.0311249  
C178     C      0.235810000000     0.860530000000     0.020950000000     0.0139887  
C179     C      0.270090000000     0.894510000000     0.477600000000     0.0328463  
C180     C      0.235210000000     0.893500000000     0.021530000000     0.0665522  
C181     C      0.224820000000     0.611110000000     0.989310000000     0.0367519  
C182     C      0.271680000000     0.611060000000     0.019860000000     0.0184066  
C183     C      0.225810000000     0.644120000000     0.988000000000     0.0382902  
C184     C      0.271240000000     0.644180000000     0.020930000000     0.0682064  
C185     C      0.268990000000     0.022600000000     0.392160000000     0.0301746  
C186     C      0.224530000000     0.988700000000     0.393430000000     0.0210397  
C187     C      0.267080000000     0.023810000000     0.359160000000     0.0320307  
C188     C      0.224210000000     0.987640000000     0.360350000000     0.0725236  
C189     C      0.235150000000     0.979220000000     0.142670000000     0.0305862  
C190     C      0.272700000000     0.520660000000     0.143210000000     0.0199722  
C191     C      0.233630000000     0.981210000000     0.109700000000     0.0368593  
C192     C      0.273610000000     0.520570000000     0.110070000000     0.0698011  
C193     C      0.020950000000     0.739620000000     0.361710000000     0.0324985  
C194     C      0.474320000000     0.770470000000     0.359950000000     0.0176462  
C195     C      0.019390000000     0.739040000000     0.394600000000     0.0351535  
C196     C      0.474180000000     0.772230000000     0.393160000000     0.0689107  
C197     C      0.521000000000     0.727640000000     0.142920000000     0.0324747  
C198     C      0.490960000000     0.774620000000     0.145990000000     0.0205152  
C199     C      0.519210000000     0.728810000000     0.109840000000     0.0299907  
C200     C      0.492150000000     0.777910000000     0.113150000000     0.0676784  
C201     C      0.108850000000     0.986970000000     0.269420000000     0.0345173  
C202     C      0.107790000000     0.522430000000     0.226190000000     0.019111   
C203     C      0.141700000000     0.985960000000     0.267770000000     0.0349055  
C204     C      0.141030000000     0.523860000000     0.226440000000     0.0689984  
C205     C      0.358360000000     0.975550000000     0.268990000000     0.0308267  
C206     C      0.358670000000     0.523360000000     0.239930000000     0.0184249  
C207     C      0.391510000000     0.976170000000     0.270150000000     0.0342078  
C208     C      0.391670000000     0.522720000000     0.238800000000     0.0698752  
C209     C      0.492810000000     0.891540000000     0.223450000000     0.0301716  
C210     C      0.022870000000     0.892640000000     0.270560000000     0.0194919  
C211     C      0.492520000000     0.858440000000     0.224580000000     0.0339405  
C212     C      0.024880000000     0.859500000000     0.270360000000     0.0691286  
C213     C      0.480720000000     0.610020000000     0.232370000000     0.0287397  
C214     C      0.007770000000     0.608740000000     0.281270000000     0.019114   
C215     C      0.479290000000     0.643050000000     0.233980000000     0.0330102  
C216     C      0.008810000000     0.641940000000     0.281610000000     0.0720759  
C217     C      0.496310000000     0.560620000000     0.754440000000     0.47415    
C218     C      0.504120000000     0.940730000000     0.748400000000     0.475009   
C219     C      0.440150000000     0.997910000000     0.753280000000     0.485638   
C220     C      0.059770000000     0.004120000000     0.749200000000     0.477783   
C221     C      0.506490000000     0.810380000000     0.749070000000     0.479176   
C222     C      0.496860000000     0.690970000000     0.756080000000     0.481162   
C223     C      0.004290000000     0.747810000000     0.692610000000     0.481089   
C224     C      0.999220000000     0.753890000000     0.812170000000     0.473733   
C225     C      0.190090000000     0.004350000000     0.747860000000     0.476174   
C226     C      0.309820000000     0.000240000000     0.754120000000     0.469319   
C227     C      0.252880000000     0.500370000000     0.691450000000     0.477745   
C228     C      0.246620000000     0.504460000000     0.811110000000     0.480143   
C229     C      0.252510000000     0.501120000000     0.561160000000     0.4798     
C230     C      0.248590000000     0.504710000000     0.941400000000     0.475577   
C231     C      0.248980000000     0.562460000000     0.003480000000     0.476939   
C232     C      0.252090000000     0.942720000000     0.999630000000     0.487323   
C233     C      0.003670000000     0.754150000000     0.562290000000     0.47932    
C234     C      0.996910000000     0.755570000000     0.942450000000     0.475915   
C235     C      0.060270000000     0.756950000000     0.998730000000     0.483619   
C236     C      0.440570000000     0.752150000000     0.005640000000     0.477363   
C237     C      0.190450000000     0.754640000000     0.497930000000     0.481062   
C238     C      0.310160000000     0.750170000000     0.503000000000     0.47592    
C239     C      0.248410000000     0.692670000000     0.003020000000     0.474098   
C240     C      0.252300000000     0.812280000000     0.998440000000     0.486317   
C241     C      0.359790000000     0.733140000000     0.982640000000     0.0339206  
C242     C      0.357840000000     0.766350000000     0.527540000000     0.0181671  
C243     C      0.392840000000     0.732550000000     0.984570000000     0.0371245  
C244     C      0.390900000000     0.768010000000     0.527930000000     0.0696199  
C245     C      0.109480000000     0.779650000000     0.513530000000     0.0312102  
C246     C      0.108100000000     0.735340000000     0.979420000000     0.0205254  
C247     C      0.142500000000     0.777610000000     0.514650000000     0.0341278  
C248     C      0.141190000000     0.735070000000     0.978070000000     0.0711933  
C249     C      0.268700000000     0.861380000000     0.975760000000     0.0323966  
C250     C      0.235810000000     0.860530000000     0.520950000000     0.0187005  
C251     C      0.270090000000     0.894510000000     0.977600000000     0.0341496  
C252     C      0.235210000000     0.893500000000     0.521530000000     0.0703858  
C253     C      0.224820000000     0.611110000000     0.489310000000     0.0313802  
C254     C      0.271680000000     0.611060000000     0.519860000000     0.0193555  
C255     C      0.225810000000     0.644120000000     0.488000000000     0.0336723  
C256     C      0.271240000000     0.644180000000     0.520930000000     0.0692871  
C257     C      0.268990000000     0.022600000000     0.892160000000     0.0303185  
C258     C      0.224530000000     0.988700000000     0.893430000000     0.0211326  
C259     C      0.267080000000     0.023810000000     0.859160000000     0.0322546  
C260     C      0.224210000000     0.987640000000     0.860350000000     0.0726472  
C261     C      0.235150000000     0.979220000000     0.642670000000     0.0306257  
C262     C      0.272700000000     0.520660000000     0.643210000000     0.0200116  
C263     C      0.233630000000     0.981210000000     0.609700000000     0.0370474  
C264     C      0.273610000000     0.520570000000     0.610080000000     0.069883   
C265     C      0.020950000000     0.739620000000     0.861710000000     0.0326673  
C266     C      0.474320000000     0.770470000000     0.859950000000     0.0178499  
C267     C      0.019390000000     0.739040000000     0.894600000000     0.0353034  
C268     C      0.474180000000     0.772230000000     0.893160000000     0.0688718  
C269     C      0.521000000000     0.727640000000     0.642920000000     0.032546   
C270     C      0.490960000000     0.774620000000     0.645990000000     0.0205601  
C271     C      0.519210000000     0.728810000000     0.609840000000     0.0301825  
C272     C      0.492150000000     0.777910000000     0.613150000000     0.0676799  
C273     C      0.108850000000     0.986970000000     0.769420000000     0.0345483  
C274     C      0.107790000000     0.522430000000     0.726190000000     0.0191629  
C275     C      0.141700000000     0.985960000000     0.767770000000     0.0349438  
C276     C      0.141030000000     0.523860000000     0.726440000000     0.069      
C277     C      0.358360000000     0.975550000000     0.768990000000     0.0308766  
C278     C      0.358670000000     0.523360000000     0.739930000000     0.0185032  
C279     C      0.391510000000     0.976170000000     0.770150000000     0.0343352  
C280     C      0.391670000000     0.522720000000     0.738800000000     0.0698659  
C281     C      0.492810000000     0.891540000000     0.723450000000     0.0301954  
C282     C      0.022870000000     0.892640000000     0.770560000000     0.0195497  
C283     C      0.492520000000     0.858440000000     0.724580000000     0.0339927  
C284     C      0.024880000000     0.859500000000     0.770360000000     0.0691138  
C285     C      0.480720000000     0.610020000000     0.732380000000     0.028871   
C286     C      0.007770000000     0.608740000000     0.781270000000     0.0192207  
C287     C      0.479290000000     0.643050000000     0.733980000000     0.0330026  
C288     C      0.008810000000     0.641940000000     0.781610000000     0.0720616  
C289     C      0.996310000000     0.060620000000     0.254440000000     0.474463   
C290     C      0.004120000000     0.440730000000     0.248400000000     0.475053   
C291     C      0.940150000000     0.497910000000     0.253280000000     0.481018   
C292     C      0.559770000000     0.504120000000     0.249200000000     0.477769   
C293     C      0.006490000000     0.310380000000     0.249060000000     0.481795   
C294     C      0.996860000000     0.190970000000     0.256080000000     0.478627   
C295     C      0.504290000000     0.247810000000     0.192610000000     0.478811   
C296     C      0.499220000000     0.253890000000     0.312170000000     0.476173   
C297     C      0.690090000000     0.504350000000     0.247860000000     0.480675   
C298     C      0.809820000000     0.500240000000     0.254120000000     0.47664    
C299     C      0.752880000000     0.000370000000     0.191450000000     0.470194   
C300     C      0.746620000000     0.004460000000     0.311110000000     0.475569   
C301     C      0.752510000000     0.001120000000     0.061160000000     0.478389   
C302     C      0.748590000000     0.004710000000     0.441400000000     0.476399   
C303     C      0.748980000000     0.062460000000     0.503480000000     0.477928   
C304     C      0.752100000000     0.442720000000     0.499630000000     0.481003   
C305     C      0.503670000000     0.254150000000     0.062290000000     0.478416   
C306     C      0.496910000000     0.255570000000     0.442460000000     0.48001    
C307     C      0.560270000000     0.256940000000     0.498730000000     0.476967   
C308     C      0.940570000000     0.252150000000     0.505640000000     0.478736   
C309     C      0.690440000000     0.254630000000     0.997930000000     0.488952   
C310     C      0.810160000000     0.250160000000     0.003000000000     0.468191   
C311     C      0.748410000000     0.192670000000     0.503020000000     0.481981   
C312     C      0.752300000000     0.312280000000     0.498440000000     0.47825    
C313     C      0.859790000000     0.233140000000     0.482640000000     0.0291852  
C314     C      0.857840000000     0.266350000000     0.027540000000     0.0168345  
C315     C      0.892840000000     0.232550000000     0.484570000000     0.0316447  
C316     C      0.890900000000     0.268010000000     0.027930000000     0.068985   
C317     C      0.609480000000     0.279660000000     0.013530000000     0.026378   
C318     C      0.608100000000     0.235340000000     0.479420000000     0.0191744  
C319     C      0.642500000000     0.277610000000     0.014650000000     0.029427   
C320     C      0.641190000000     0.235070000000     0.478070000000     0.0702038  
C321     C      0.768700000000     0.361380000000     0.475760000000     0.0309952  
C322     C      0.735810000000     0.360530000000     0.020950000000     0.0138041  
C323     C      0.770090000000     0.394510000000     0.477600000000     0.0326926  
C324     C      0.735210000000     0.393490000000     0.021530000000     0.0665148  
C325     C      0.724820000000     0.111110000000     0.989310000000     0.0366779  
C326     C      0.771680000000     0.111060000000     0.019860000000     0.018326   
C327     C      0.725810000000     0.144120000000     0.988000000000     0.0382482  
C328     C      0.771240000000     0.144180000000     0.020930000000     0.0681906  
C329     C      0.768990000000     0.522600000000     0.392160000000     0.0306898  
C330     C      0.724530000000     0.488700000000     0.393430000000     0.0178864  
C331     C      0.767080000000     0.523810000000     0.359160000000     0.0327696  
C332     C      0.724210000000     0.487640000000     0.360350000000     0.0702938  
C333     C      0.735150000000     0.479220000000     0.142670000000     0.0314323  
C334     C      0.772710000000     0.020660000000     0.143210000000     0.015807   
C335     C      0.733630000000     0.481210000000     0.109700000000     0.0324603  
C336     C      0.773610000000     0.020570000000     0.110070000000     0.0705111  
C337     C      0.520960000000     0.239620000000     0.361710000000     0.0309595  
C338     C      0.974320000000     0.270470000000     0.359950000000     0.0171679  
C339     C      0.519390000000     0.239040000000     0.394600000000     0.0336666  
C340     C      0.974180000000     0.272230000000     0.393160000000     0.068598   
C341     C      0.021000000000     0.227640000000     0.142920000000     0.0328741  
C342     C      0.990960000000     0.274620000000     0.145990000000     0.019      
C343     C      0.019210000000     0.228820000000     0.109840000000     0.0304376  
C344     C      0.992150000000     0.277910000000     0.113150000000     0.0662786  
C345     C      0.608850000000     0.486970000000     0.269420000000     0.0314116  
C346     C      0.607790000000     0.022430000000     0.226190000000     0.0184873  
C347     C      0.641700000000     0.485950000000     0.267770000000     0.0322464  
C348     C      0.641030000000     0.023860000000     0.226440000000     0.0684369  
C349     C      0.858360000000     0.475550000000     0.268990000000     0.0306143  
C350     C      0.858670000000     0.023360000000     0.239930000000     0.0153084  
C351     C      0.891510000000     0.476170000000     0.270150000000     0.0330761  
C352     C      0.891670000000     0.022720000000     0.238800000000     0.06783    
C353     C      0.992810000000     0.391540000000     0.223450000000     0.0283813  
C354     C      0.522870000000     0.392640000000     0.270560000000     0.0189721  
C355     C      0.992520000000     0.358440000000     0.224580000000     0.0324444  
C356     C      0.524880000000     0.359500000000     0.270360000000     0.0687285  
C357     C      0.980720000000     0.110020000000     0.232370000000     0.0283541  
C358     C      0.507770000000     0.108740000000     0.281270000000     0.0172102  
C359     C      0.979290000000     0.143050000000     0.233980000000     0.0325462  
C360     C      0.508810000000     0.141930000000     0.281610000000     0.0708101  
C361     C      0.996310000000     0.060620000000     0.754440000000     0.474415   
C362     C      0.004120000000     0.440730000000     0.748400000000     0.474993   
C363     C      0.940150000000     0.497910000000     0.753280000000     0.480956   
C364     C      0.559770000000     0.504120000000     0.749200000000     0.477711   
C365     C      0.006490000000     0.310380000000     0.749070000000     0.481787   
C366     C      0.996860000000     0.190970000000     0.756080000000     0.478628   
C367     C      0.504290000000     0.247810000000     0.692610000000     0.478818   
C368     C      0.499220000000     0.253890000000     0.812170000000     0.476198   
C369     C      0.690090000000     0.504350000000     0.747860000000     0.480672   
C370     C      0.809820000000     0.500240000000     0.754120000000     0.476663   
C371     C      0.752880000000     0.000370000000     0.691450000000     0.470229   
C372     C      0.746620000000     0.004460000000     0.811110000000     0.475617   
C373     C      0.752510000000     0.001120000000     0.561160000000     0.479256   
C374     C      0.748590000000     0.004710000000     0.941400000000     0.47496    
C375     C      0.748980000000     0.062460000000     0.003480000000     0.476623   
C376     C      0.752100000000     0.442720000000     0.999630000000     0.487946   
C377     C      0.503670000000     0.254150000000     0.562290000000     0.479349   
C378     C      0.496910000000     0.255570000000     0.942450000000     0.478523   
C379     C      0.560270000000     0.256940000000     0.998730000000     0.483722   
C380     C      0.940570000000     0.252150000000     0.005640000000     0.477415   
C381     C      0.690440000000     0.254630000000     0.497930000000     0.480979   
C382     C      0.810160000000     0.250160000000     0.503000000000     0.475903   
C383     C      0.748410000000     0.192670000000     0.003020000000     0.474075   
C384     C      0.752300000000     0.312280000000     0.998440000000     0.486325   
C385     C      0.859790000000     0.233140000000     0.982640000000     0.0338754  
C386     C      0.857840000000     0.266350000000     0.527540000000     0.0181026  
C387     C      0.892840000000     0.232550000000     0.984570000000     0.0370325  
C388     C      0.890900000000     0.268010000000     0.527930000000     0.0696186  
C389     C      0.609480000000     0.279660000000     0.513530000000     0.0310622  
C390     C      0.608100000000     0.235340000000     0.979420000000     0.0204218  
C391     C      0.642500000000     0.277610000000     0.514650000000     0.0341056  
C392     C      0.641190000000     0.235070000000     0.978070000000     0.0711785  
C393     C      0.768700000000     0.361380000000     0.975760000000     0.0322739  
C394     C      0.735810000000     0.360530000000     0.520950000000     0.0185373  
C395     C      0.770090000000     0.394510000000     0.977600000000     0.0340038  
C396     C      0.735210000000     0.393490000000     0.521530000000     0.0703684  
C397     C      0.724820000000     0.111110000000     0.489310000000     0.0312979  
C398     C      0.771680000000     0.111060000000     0.519860000000     0.0192756  
C399     C      0.725810000000     0.144120000000     0.488000000000     0.0336194  
C400     C      0.771240000000     0.144180000000     0.520930000000     0.0692728  
C401     C      0.768990000000     0.522600000000     0.892160000000     0.0308312  
C402     C      0.724530000000     0.488700000000     0.893430000000     0.0180072  
C403     C      0.767080000000     0.523810000000     0.859160000000     0.0329887  
C404     C      0.724210000000     0.487640000000     0.860350000000     0.070432   
C405     C      0.735150000000     0.479220000000     0.642670000000     0.0314697  
C406     C      0.772710000000     0.020660000000     0.643210000000     0.01586    
C407     C      0.733630000000     0.481210000000     0.609700000000     0.032664   
C408     C      0.773610000000     0.020570000000     0.610080000000     0.0705899  
C409     C      0.520960000000     0.239620000000     0.861710000000     0.0311339  
C410     C      0.974320000000     0.270470000000     0.859950000000     0.0173727  
C411     C      0.519390000000     0.239040000000     0.894600000000     0.0338244  
C412     C      0.974180000000     0.272230000000     0.893160000000     0.0685594  
C413     C      0.021000000000     0.227640000000     0.642920000000     0.0329447  
C414     C      0.990960000000     0.274620000000     0.645990000000     0.0190445  
C415     C      0.019210000000     0.228820000000     0.609840000000     0.0306285  
C416     C      0.992150000000     0.277910000000     0.613150000000     0.0662776  
C417     C      0.608850000000     0.486970000000     0.769420000000     0.0314591  
C418     C      0.607790000000     0.022430000000     0.726190000000     0.0185411  
C419     C      0.641700000000     0.485950000000     0.767770000000     0.0322983  
C420     C      0.641030000000     0.023860000000     0.726440000000     0.0684408  
C421     C      0.858360000000     0.475550000000     0.768990000000     0.0306661  
C422     C      0.858670000000     0.023360000000     0.739930000000     0.015401   
C423     C      0.891510000000     0.476170000000     0.770150000000     0.0332094  
C424     C      0.891670000000     0.022720000000     0.738800000000     0.0678306  
C425     C      0.992810000000     0.391540000000     0.723450000000     0.0284065  
C426     C      0.522870000000     0.392640000000     0.770560000000     0.0190322  
C427     C      0.992520000000     0.358440000000     0.724580000000     0.0324977  
C428     C      0.524880000000     0.359500000000     0.770360000000     0.068715   
C429     C      0.980720000000     0.110020000000     0.732380000000     0.0284854  
C430     C      0.507770000000     0.108740000000     0.781270000000     0.0173215  
C431     C      0.979290000000     0.143050000000     0.733980000000     0.0325385  
C432     C      0.508810000000     0.141930000000     0.781610000000     0.0707985  
C433     C      0.996310000000     0.560620000000     0.254440000000     0.474161   
C434     C      0.004120000000     0.940730000000     0.248400000000     0.475183   
C435     C      0.940150000000     0.997910000000     0.253280000000     0.48579    
C436     C      0.559770000000     0.004120000000     0.249200000000     0.477879   
C437     C      0.006490000000     0.810380000000     0.249060000000     0.481765   
C438     C      0.996860000000     0.690970000000     0.256080000000     0.478655   
C439     C      0.504290000000     0.747810000000     0.192610000000     0.478785   
C440     C      0.499220000000     0.753890000000     0.312170000000     0.476215   
C441     C      0.690090000000     0.004350000000     0.247860000000     0.476184   
C442     C      0.809820000000     0.000240000000     0.254120000000     0.46919    
C443     C      0.752880000000     0.500370000000     0.191450000000     0.477735   
C444     C      0.746620000000     0.504460000000     0.311110000000     0.480123   
C445     C      0.752510000000     0.501120000000     0.061160000000     0.47894    
C446     C      0.748590000000     0.504710000000     0.441400000000     0.477023   
C447     C      0.748980000000     0.562460000000     0.503480000000     0.478248   
C448     C      0.752100000000     0.942720000000     0.499630000000     0.480427   
C449     C      0.503670000000     0.754150000000     0.062290000000     0.478403   
C450     C      0.496910000000     0.755570000000     0.442460000000     0.479995   
C451     C      0.560270000000     0.756950000000     0.498730000000     0.476954   
C452     C      0.940570000000     0.752150000000     0.505640000000     0.47871    
C453     C      0.690440000000     0.754640000000     0.997930000000     0.488928   
C454     C      0.810160000000     0.750170000000     0.003000000000     0.468225   
C455     C      0.748410000000     0.692670000000     0.503020000000     0.481986   
C456     C      0.752300000000     0.812280000000     0.498440000000     0.478274   
C457     C      0.859790000000     0.733140000000     0.482640000000     0.0291957  
C458     C      0.857840000000     0.766350000000     0.027540000000     0.0168833  
C459     C      0.892840000000     0.732550000000     0.484570000000     0.0317151  
C460     C      0.890900000000     0.768010000000     0.027930000000     0.0689429  
C461     C      0.609480000000     0.779650000000     0.013530000000     0.026503   
C462     C      0.608100000000     0.735340000000     0.479420000000     0.0192093  
C463     C      0.642500000000     0.777610000000     0.014650000000     0.0294188  
C464     C      0.641190000000     0.735070000000     0.478070000000     0.0702212  
C465     C      0.768700000000     0.861380000000     0.475760000000     0.0311134  
C466     C      0.735810000000     0.860530000000     0.020950000000     0.0139613  
C467     C      0.770090000000     0.894510000000     0.477600000000     0.0328221  
C468     C      0.735210000000     0.893500000000     0.021530000000     0.0665593  
C469     C      0.724820000000     0.611110000000     0.989310000000     0.0367382  
C470     C      0.771680000000     0.611060000000     0.019860000000     0.0183863  
C471     C      0.725810000000     0.644120000000     0.988000000000     0.0382755  
C472     C      0.771240000000     0.644180000000     0.020930000000     0.0682014  
C473     C      0.768990000000     0.022600000000     0.392160000000     0.0301545  
C474     C      0.724530000000     0.988700000000     0.393430000000     0.0210344  
C475     C      0.767080000000     0.023810000000     0.359160000000     0.0320109  
C476     C      0.724210000000     0.987640000000     0.360350000000     0.0725245  
C477     C      0.735150000000     0.979220000000     0.142670000000     0.0305655  
C478     C      0.772710000000     0.520660000000     0.143210000000     0.0198828  
C479     C      0.733630000000     0.981210000000     0.109700000000     0.0368597  
C480     C      0.773610000000     0.520570000000     0.110070000000     0.0698315  
C481     C      0.520960000000     0.739620000000     0.361710000000     0.0309874  
C482     C      0.974320000000     0.770470000000     0.359950000000     0.017208   
C483     C      0.519390000000     0.739040000000     0.394600000000     0.0336965  
C484     C      0.974180000000     0.772230000000     0.393160000000     0.0685929  
C485     C      0.021000000000     0.727640000000     0.142920000000     0.0329254  
C486     C      0.990960000000     0.774620000000     0.145990000000     0.0190507  
C487     C      0.019210000000     0.728810000000     0.109840000000     0.030377   
C488     C      0.992150000000     0.777910000000     0.113150000000     0.0662639  
C489     C      0.608850000000     0.986970000000     0.269420000000     0.0344601  
C490     C      0.607790000000     0.522430000000     0.226190000000     0.0190528  
C491     C      0.641700000000     0.985960000000     0.267770000000     0.0348984  
C492     C      0.641030000000     0.523860000000     0.226440000000     0.0689639  
C493     C      0.858360000000     0.975550000000     0.268990000000     0.0307697  
C494     C      0.858670000000     0.523360000000     0.239930000000     0.0183917  
C495     C      0.891510000000     0.976170000000     0.270150000000     0.0341595  
C496     C      0.891670000000     0.522720000000     0.238800000000     0.0698404  
C497     C      0.992810000000     0.891540000000     0.223450000000     0.0284951  
C498     C      0.522870000000     0.892640000000     0.270560000000     0.019144   
C499     C      0.992520000000     0.858440000000     0.224580000000     0.0325532  
C500     C      0.524880000000     0.859500000000     0.270360000000     0.0687538  
C501     C      0.980720000000     0.610020000000     0.232370000000     0.0284358  
C502     C      0.507770000000     0.608740000000     0.281270000000     0.0172568  
C503     C      0.979290000000     0.643050000000     0.233980000000     0.0325762  
C504     C      0.508810000000     0.641940000000     0.281610000000     0.0708945  
C505     C      0.996310000000     0.560620000000     0.754440000000     0.474115   
C506     C      0.004120000000     0.940730000000     0.748400000000     0.475122   
C507     C      0.940150000000     0.997910000000     0.753280000000     0.485706   
C508     C      0.559770000000     0.004120000000     0.749200000000     0.477819   
C509     C      0.006490000000     0.810380000000     0.749070000000     0.481757   
C510     C      0.996860000000     0.690970000000     0.756080000000     0.478656   
C511     C      0.504290000000     0.747810000000     0.692610000000     0.478791   
C512     C      0.499220000000     0.753890000000     0.812170000000     0.47624    
C513     C      0.690090000000     0.004350000000     0.747860000000     0.476201   
C514     C      0.809820000000     0.000240000000     0.754120000000     0.469248   
C515     C      0.752880000000     0.500370000000     0.691450000000     0.477741   
C516     C      0.746620000000     0.504460000000     0.811110000000     0.480147   
C517     C      0.752510000000     0.501120000000     0.561160000000     0.479809   
C518     C      0.748590000000     0.504710000000     0.941400000000     0.475581   
C519     C      0.748980000000     0.562460000000     0.003480000000     0.476942   
C520     C      0.752100000000     0.942720000000     0.999630000000     0.48732    
C521     C      0.503670000000     0.754150000000     0.562290000000     0.479333   
C522     C      0.496910000000     0.755570000000     0.942450000000     0.478512   
C523     C      0.560270000000     0.756950000000     0.998730000000     0.483691   
C524     C      0.940570000000     0.752150000000     0.005640000000     0.477393   
C525     C      0.690440000000     0.754640000000     0.497930000000     0.480979   
C526     C      0.810160000000     0.750170000000     0.503000000000     0.475917   
C527     C      0.748410000000     0.692670000000     0.003020000000     0.474096   
C528     C      0.752300000000     0.812280000000     0.998440000000     0.486318   
C529     C      0.859790000000     0.733140000000     0.982640000000     0.0338721  
C530     C      0.857840000000     0.766350000000     0.527540000000     0.0181476  
C531     C      0.892840000000     0.732550000000     0.984570000000     0.0370894  
C532     C      0.890900000000     0.768010000000     0.527930000000     0.0695752  
C533     C      0.609480000000     0.779650000000     0.513530000000     0.0311759  
C534     C      0.608100000000     0.735340000000     0.979420000000     0.020453   
C535     C      0.642500000000     0.777610000000     0.514650000000     0.0340836  
C536     C      0.641190000000     0.735070000000     0.978070000000     0.0711931  
C537     C      0.768700000000     0.861380000000     0.975760000000     0.0323858  
C538     C      0.735810000000     0.860530000000     0.520950000000     0.0186749  
C539     C      0.770090000000     0.894510000000     0.977600000000     0.0341257  
C540     C      0.735210000000     0.893500000000     0.521530000000     0.0703942  
C541     C      0.724820000000     0.611110000000     0.489310000000     0.0313633  
C542     C      0.771680000000     0.611060000000     0.519860000000     0.0193353  
C543     C      0.725810000000     0.644120000000     0.488000000000     0.0336549  
C544     C      0.771240000000     0.644180000000     0.520930000000     0.0692823  
C545     C      0.768990000000     0.022600000000     0.892160000000     0.0302984  
C546     C      0.724530000000     0.988700000000     0.893430000000     0.0211275  
C547     C      0.767080000000     0.023810000000     0.859160000000     0.0322347  
C548     C      0.724210000000     0.987640000000     0.860350000000     0.0726482  
C549     C      0.735150000000     0.979220000000     0.642670000000     0.0306049  
C550     C      0.772710000000     0.520660000000     0.643210000000     0.0199223  
C551     C      0.733630000000     0.981210000000     0.609700000000     0.037048   
C552     C      0.773610000000     0.520570000000     0.610080000000     0.0699134  
C553     C      0.520960000000     0.739620000000     0.861710000000     0.0311612  
C554     C      0.974320000000     0.770470000000     0.859950000000     0.017412   
C555     C      0.519390000000     0.739040000000     0.894600000000     0.0338538  
C556     C      0.974180000000     0.772230000000     0.893160000000     0.0685546  
C557     C      0.021000000000     0.727640000000     0.642920000000     0.032996   
C558     C      0.990960000000     0.774620000000     0.645990000000     0.0190951  
C559     C      0.019210000000     0.728810000000     0.609840000000     0.0305676  
C560     C      0.992150000000     0.777910000000     0.613150000000     0.066263   
C561     C      0.608850000000     0.986970000000     0.769420000000     0.0344913  
C562     C      0.607790000000     0.522430000000     0.726190000000     0.0191049  
C563     C      0.641700000000     0.985960000000     0.767770000000     0.034937   
C564     C      0.641030000000     0.523860000000     0.726440000000     0.0689656  
C565     C      0.858360000000     0.975550000000     0.768990000000     0.0308195  
C566     C      0.858670000000     0.523360000000     0.739930000000     0.0184699  
C567     C      0.891510000000     0.976170000000     0.770150000000     0.0342868  
C568     C      0.891670000000     0.522720000000     0.738800000000     0.0698312  
C569     C      0.992810000000     0.891540000000     0.723450000000     0.0285197  
C570     C      0.522870000000     0.892640000000     0.770560000000     0.019203   
C571     C      0.992520000000     0.858440000000     0.724580000000     0.032606   
C572     C      0.524880000000     0.859500000000     0.770360000000     0.0687402  
C573     C      0.980720000000     0.610020000000     0.732380000000     0.0285668  
C574     C      0.507770000000     0.608740000000     0.781270000000     0.0173679  
C575     C      0.979290000000     0.643050000000     0.733980000000     0.0325684  
C576     C      0.508810000000     0.641940000000     0.781610000000     0.0708826  
H1       H      0.405880000000     0.218790000000     0.467210000000     0.0282402  
H2       H      0.348320000000     0.219340000000     0.464260000000     0.0314473  
H3       H      0.344610000000     0.279650000000     0.045130000000     0.0389737  
H4       H      0.413270000000     0.270910000000     0.084230000000     0.036209   
H5       H      0.155370000000     0.294420000000     0.029250000000     0.0282161  
H6       H      0.097710000000     0.297530000000     0.027760000000     0.0317698  
H7       H      0.094980000000     0.217960000000     0.465720000000     0.0359656  
H8       H      0.164690000000     0.217020000000     0.424930000000     0.036567   
H9       H      0.283930000000     0.407260000000     0.460110000000     0.0301013  
H10      H      0.282120000000     0.349400000000     0.457440000000     0.0323471  
H11      H      0.222370000000     0.347770000000     0.038790000000     0.0389066  
H12      H      0.234450000000     0.413680000000     0.078570000000     0.0327468  
H13      H      0.207630000000     0.156430000000     0.974700000000     0.029887   
H14      H      0.206160000000     0.098880000000     0.976580000000     0.0331381  
H15      H      0.290480000000     0.098530000000     0.032140000000     0.0386355  
H16      H      0.326890000000     0.168910000000     0.020190000000     0.0336628  
H17      H      0.284270000000     0.538050000000     0.346410000000     0.0296001  
H18      H      0.287150000000     0.536460000000     0.403930000000     0.0325638  
H19      H      0.207110000000     0.474940000000     0.406400000000     0.0387488  
H20      H      0.167590000000     0.484120000000     0.339160000000     0.0326222  
H21      H      0.217080000000     0.465990000000     0.097360000000     0.0292064  
H22      H      0.219560000000     0.462760000000     0.154780000000     0.0311292  
H23      H      0.287750000000     0.037130000000     0.156020000000     0.037201   
H24      H      0.327290000000     0.035630000000     0.085620000000     0.0354664  
H25      H      0.037490000000     0.226060000000     0.407450000000     0.0282348  
H26      H      0.039960000000     0.226660000000     0.350290000000     0.0328622  
H27      H      0.455960000000     0.282690000000     0.346750000000     0.0373596  
H28      H      0.418270000000     0.272460000000     0.417160000000     0.0348815  
H29      H      0.530360000000     0.209880000000     0.096520000000     0.0324914  
H30      H      0.532940000000     0.207840000000     0.154130000000     0.0273258  
H31      H      0.479510000000     0.292960000000     0.159980000000     0.0327824  
H32      H      0.498740000000     0.335890000000     0.095710000000     0.0349128  
H33      H      0.154110000000     0.470490000000     0.284050000000     0.0304021  
H34      H      0.097050000000     0.472100000000     0.286750000000     0.0312022  
H35      H      0.094760000000     0.036540000000     0.209100000000     0.0368742  
H36      H      0.164870000000     0.077150000000     0.209220000000     0.0374833  
H37      H      0.403810000000     0.457270000000     0.282480000000     0.0281319  
H38      H      0.345940000000     0.456520000000     0.280980000000     0.0323202  
H39      H      0.346390000000     0.042620000000     0.228100000000     0.038757   
H40      H      0.415810000000     0.078450000000     0.241460000000     0.0347853  
H41      H      0.479690000000     0.345630000000     0.206350000000     0.0267775  
H42      H      0.479870000000     0.403310000000     0.204630000000     0.0321148  
H43      H      0.034650000000     0.405590000000     0.289400000000     0.0376619  
H44      H      0.024390000000     0.335230000000     0.326180000000     0.0373474  
H45      H      0.467880000000     0.155830000000     0.214820000000     0.0272355  
H46      H      0.469880000000     0.098360000000     0.212230000000     0.0328703  
H47      H      0.018900000000     0.095830000000     0.300500000000     0.0384346  
H48      H      0.058130000000     0.165960000000     0.308050000000     0.0373994  
H49      H      0.405880000000     0.218790000000     0.967210000000     0.0286714  
H50      H      0.348320000000     0.219340000000     0.964260000000     0.0316651  
H51      H      0.344610000000     0.279650000000     0.545130000000     0.0391166  
H52      H      0.413270000000     0.270910000000     0.584230000000     0.0361228  
H53      H      0.155370000000     0.294420000000     0.529250000000     0.0282323  
H54      H      0.097710000000     0.297530000000     0.527760000000     0.0316742  
H55      H      0.094980000000     0.217960000000     0.965720000000     0.0362701  
H56      H      0.164690000000     0.217020000000     0.924930000000     0.0365251  
H57      H      0.283930000000     0.407260000000     0.960110000000     0.0304572  
H58      H      0.282120000000     0.349400000000     0.957440000000     0.0326993  
H59      H      0.222370000000     0.347770000000     0.538790000000     0.038558   
H60      H      0.234450000000     0.413680000000     0.578570000000     0.0329641  
H61      H      0.207630000000     0.156430000000     0.474700000000     0.0298369  
H62      H      0.206160000000     0.098880000000     0.476580000000     0.0325555  
H63      H      0.290480000000     0.098530000000     0.532140000000     0.0388709  
H64      H      0.326890000000     0.168910000000     0.520190000000     0.0349721  
H65      H      0.284270000000     0.538050000000     0.846410000000     0.0297919  
H66      H      0.287150000000     0.536460000000     0.903930000000     0.0333163  
H67      H      0.207110000000     0.474940000000     0.906400000000     0.039371   
H68      H      0.167590000000     0.484120000000     0.839160000000     0.0328342  
H69      H      0.217080000000     0.465990000000     0.597360000000     0.0293632  
H70      H      0.219560000000     0.462760000000     0.654780000000     0.0312027  
H71      H      0.287750000000     0.037130000000     0.656020000000     0.037246   
H72      H      0.327290000000     0.035630000000     0.585620000000     0.0358214  
H73      H      0.037490000000     0.226060000000     0.907450000000     0.0286098  
H74      H      0.039960000000     0.226660000000     0.850290000000     0.0329635  
H75      H      0.455960000000     0.282690000000     0.846750000000     0.0374168  
H76      H      0.418270000000     0.272460000000     0.917160000000     0.0353114  
H77      H      0.530360000000     0.209880000000     0.596520000000     0.0329843  
H78      H      0.532940000000     0.207840000000     0.654130000000     0.0274771  
H79      H      0.479510000000     0.292960000000     0.659980000000     0.0328064  
H80      H      0.498740000000     0.335890000000     0.595710000000     0.0352246  
H81      H      0.154110000000     0.470490000000     0.784050000000     0.0304609  
H82      H      0.097050000000     0.472100000000     0.786750000000     0.0313609  
H83      H      0.094760000000     0.036540000000     0.709100000000     0.0369934  
H84      H      0.164870000000     0.077150000000     0.709220000000     0.0375393  
H85      H      0.403810000000     0.457270000000     0.782480000000     0.0282726  
H86      H      0.345940000000     0.456520000000     0.780980000000     0.0324344  
H87      H      0.346390000000     0.042620000000     0.728100000000     0.0387843  
H88      H      0.415810000000     0.078450000000     0.741460000000     0.0348333  
H89      H      0.479690000000     0.345630000000     0.706350000000     0.0268268  
H90      H      0.479870000000     0.403310000000     0.704630000000     0.0322301  
H91      H      0.034650000000     0.405590000000     0.789400000000     0.0378268  
H92      H      0.024390000000     0.335230000000     0.826180000000     0.0375479  
H93      H      0.467880000000     0.155830000000     0.714820000000     0.0273088  
H94      H      0.469880000000     0.098360000000     0.712230000000     0.0329421  
H95      H      0.018900000000     0.095830000000     0.800510000000     0.0386231  
H96      H      0.058130000000     0.165960000000     0.808050000000     0.0374522  
H97      H      0.405880000000     0.718790000000     0.467210000000     0.0282812  
H98      H      0.348320000000     0.719340000000     0.464260000000     0.0314906  
H99      H      0.344610000000     0.779650000000     0.045130000000     0.0390229  
H100     H      0.413270000000     0.770910000000     0.084230000000     0.0361994  
H101     H      0.155370000000     0.794420000000     0.029250000000     0.0282865  
H102     H      0.097710000000     0.797530000000     0.027760000000     0.0318552  
H103     H      0.094980000000     0.717960000000     0.465720000000     0.0360212  
H104     H      0.164690000000     0.717020000000     0.424930000000     0.0365986  
H105     H      0.283930000000     0.907260000000     0.460110000000     0.0305247  
H106     H      0.282120000000     0.849400000000     0.457440000000     0.0324494  
H107     H      0.222370000000     0.847760000000     0.038790000000     0.0389409  
H108     H      0.234450000000     0.913680000000     0.078570000000     0.032971   
H109     H      0.207630000000     0.656420000000     0.974700000000     0.029937   
H110     H      0.206160000000     0.598880000000     0.976580000000     0.0333111  
H111     H      0.290480000000     0.598530000000     0.032140000000     0.0386852  
H112     H      0.326890000000     0.668910000000     0.020190000000     0.0337147  
H113     H      0.284270000000     0.038050000000     0.346410000000     0.0294367  
H114     H      0.287150000000     0.036450000000     0.403930000000     0.0323566  
H115     H      0.207110000000     0.974940000000     0.406400000000     0.0389717  
H116     H      0.167590000000     0.984120000000     0.339160000000     0.0334238  
H117     H      0.217080000000     0.965990000000     0.097360000000     0.0290843  
H118     H      0.219560000000     0.962760000000     0.154780000000     0.0320682  
H119     H      0.287750000000     0.537130000000     0.156020000000     0.0364392  
H120     H      0.327290000000     0.535640000000     0.085620000000     0.0358277  
H121     H      0.037490000000     0.726060000000     0.407450000000     0.0282878  
H122     H      0.039960000000     0.726660000000     0.350290000000     0.0328902  
H123     H      0.455960000000     0.782690000000     0.346750000000     0.0373861  
H124     H      0.418270000000     0.772450000000     0.417160000000     0.0348831  
H125     H      0.530360000000     0.709870000000     0.096520000000     0.0325652  
H126     H      0.532940000000     0.707840000000     0.154130000000     0.0273456  
H127     H      0.479510000000     0.792960000000     0.159980000000     0.0328463  
H128     H      0.498740000000     0.835890000000     0.095710000000     0.0351374  
H129     H      0.154110000000     0.970490000000     0.284050000000     0.0302773  
H130     H      0.097050000000     0.972110000000     0.286750000000     0.0313739  
H131     H      0.094760000000     0.536540000000     0.209100000000     0.0370045  
H132     H      0.164870000000     0.577150000000     0.209220000000     0.0374364  
H133     H      0.403810000000     0.957270000000     0.282480000000     0.0281756  
H134     H      0.345940000000     0.956520000000     0.280980000000     0.0328597  
H135     H      0.346390000000     0.542620000000     0.228100000000     0.0382     
H136     H      0.415810000000     0.578450000000     0.241460000000     0.0349685  
H137     H      0.479690000000     0.845630000000     0.206350000000     0.0268791  
H138     H      0.479870000000     0.903310000000     0.204630000000     0.0325012  
H139     H      0.034650000000     0.905590000000     0.289400000000     0.0378876  
H140     H      0.024390000000     0.835230000000     0.326180000000     0.0373987  
H141     H      0.467880000000     0.655830000000     0.214820000000     0.027255   
H142     H      0.469880000000     0.598360000000     0.212230000000     0.0329463  
H143     H      0.018900000000     0.595830000000     0.300500000000     0.0387277  
H144     H      0.058130000000     0.665960000000     0.308050000000     0.037454   
H145     H      0.405880000000     0.718790000000     0.967210000000     0.0287115  
H146     H      0.348320000000     0.719340000000     0.964260000000     0.0317085  
H147     H      0.344610000000     0.779650000000     0.545130000000     0.0391649  
H148     H      0.413270000000     0.770910000000     0.584230000000     0.0361137  
H149     H      0.155370000000     0.794420000000     0.529250000000     0.0283027  
H150     H      0.097710000000     0.797530000000     0.527760000000     0.0317596  
H151     H      0.094980000000     0.717960000000     0.965720000000     0.036325   
H152     H      0.164690000000     0.717020000000     0.924930000000     0.0365566  
H153     H      0.283930000000     0.907260000000     0.960110000000     0.0308765  
H154     H      0.282120000000     0.849400000000     0.957440000000     0.0327998  
H155     H      0.222370000000     0.847760000000     0.538790000000     0.0385947  
H156     H      0.234450000000     0.913680000000     0.578570000000     0.0331862  
H157     H      0.207630000000     0.656420000000     0.474700000000     0.0298879  
H158     H      0.206160000000     0.598880000000     0.476580000000     0.0327297  
H159     H      0.290480000000     0.598530000000     0.532140000000     0.0389207  
H160     H      0.326890000000     0.668910000000     0.520190000000     0.0350224  
H161     H      0.284270000000     0.038050000000     0.846410000000     0.0296292  
H162     H      0.287150000000     0.036450000000     0.903930000000     0.0331105  
H163     H      0.207110000000     0.974940000000     0.906400000000     0.0395893  
H164     H      0.167590000000     0.984120000000     0.839160000000     0.0336292  
H165     H      0.217080000000     0.965990000000     0.597360000000     0.029241   
H166     H      0.219560000000     0.962760000000     0.654780000000     0.0321379  
H167     H      0.287750000000     0.537130000000     0.656020000000     0.0364871  
H168     H      0.327290000000     0.535640000000     0.585620000000     0.0361836  
H169     H      0.037490000000     0.726060000000     0.907450000000     0.0286617  
H170     H      0.039960000000     0.726660000000     0.850290000000     0.0329911  
H171     H      0.455960000000     0.782690000000     0.846750000000     0.0374429  
H172     H      0.418270000000     0.772450000000     0.917160000000     0.0353119  
H173     H      0.530360000000     0.709870000000     0.596520000000     0.0330575  
H174     H      0.532940000000     0.707840000000     0.654130000000     0.0274967  
H175     H      0.479510000000     0.792960000000     0.659980000000     0.03287    
H176     H      0.498740000000     0.835890000000     0.595710000000     0.0354474  
H177     H      0.154110000000     0.970490000000     0.784050000000     0.0303361  
H178     H      0.097050000000     0.972110000000     0.786750000000     0.0315307  
H179     H      0.094760000000     0.536540000000     0.709100000000     0.0371238  
H180     H      0.164870000000     0.577150000000     0.709220000000     0.0374922  
H181     H      0.403810000000     0.957270000000     0.782480000000     0.028315   
H182     H      0.345940000000     0.956520000000     0.780980000000     0.0329704  
H183     H      0.346390000000     0.542620000000     0.728100000000     0.0382303  
H184     H      0.415810000000     0.578450000000     0.741460000000     0.0350153  
H185     H      0.479690000000     0.845630000000     0.706350000000     0.0269277  
H186     H      0.479870000000     0.903310000000     0.704630000000     0.0326145  
H187     H      0.034650000000     0.905590000000     0.789400000000     0.0380504  
H188     H      0.024390000000     0.835230000000     0.826180000000     0.037598   
H189     H      0.467880000000     0.655830000000     0.714820000000     0.0273284  
H190     H      0.469880000000     0.598360000000     0.712230000000     0.0330182  
H191     H      0.018900000000     0.595830000000     0.800510000000     0.0389148  
H192     H      0.058130000000     0.665960000000     0.808050000000     0.0375065  
H193     H      0.905880000000     0.218790000000     0.467210000000     0.0280566  
H194     H      0.848320000000     0.219340000000     0.464260000000     0.0313976  
H195     H      0.844610000000     0.279650000000     0.045130000000     0.0389629  
H196     H      0.913270000000     0.270910000000     0.084230000000     0.0360903  
H197     H      0.655370000000     0.294420000000     0.029250000000     0.028151   
H198     H      0.597710000000     0.297530000000     0.027760000000     0.0315717  
H199     H      0.594980000000     0.217960000000     0.465720000000     0.035872   
H200     H      0.664690000000     0.217020000000     0.424930000000     0.0365416  
H201     H      0.783930000000     0.407260000000     0.460110000000     0.0300667  
H202     H      0.782120000000     0.349400000000     0.457440000000     0.0323237  
H203     H      0.722370000000     0.347770000000     0.038790000000     0.0388797  
H204     H      0.734450000000     0.413680000000     0.078570000000     0.0327472  
H205     H      0.707630000000     0.156430000000     0.974700000000     0.0298683  
H206     H      0.706160000000     0.098880000000     0.976580000000     0.0330939  
H207     H      0.790480000000     0.098530000000     0.032140000000     0.0385987  
H208     H      0.826890000000     0.168910000000     0.020190000000     0.0335979  
H209     H      0.784270000000     0.538050000000     0.346410000000     0.0295608  
H210     H      0.787150000000     0.536460000000     0.403930000000     0.0325092  
H211     H      0.707110000000     0.474940000000     0.406400000000     0.0387032  
H212     H      0.667590000000     0.484120000000     0.339160000000     0.0325747  
H213     H      0.717080000000     0.465990000000     0.097360000000     0.0291595  
H214     H      0.719560000000     0.462760000000     0.154780000000     0.0310897  
H215     H      0.787750000000     0.037130000000     0.156020000000     0.0372123  
H216     H      0.827290000000     0.035630000000     0.085620000000     0.0353943  
H217     H      0.537490000000     0.226060000000     0.407450000000     0.0282714  
H218     H      0.539970000000     0.226660000000     0.350290000000     0.0330003  
H219     H      0.955960000000     0.282690000000     0.346750000000     0.0372795  
H220     H      0.918270000000     0.272460000000     0.417160000000     0.034854   
H221     H      0.030360000000     0.209880000000     0.096520000000     0.032665   
H222     H      0.032940000000     0.207840000000     0.154130000000     0.0275345  
H223     H      0.979510000000     0.292960000000     0.159980000000     0.0328128  
H224     H      0.998740000000     0.335890000000     0.095710000000     0.0344901  
H225     H      0.654120000000     0.470490000000     0.284050000000     0.0303846  
H226     H      0.597050000000     0.472100000000     0.286750000000     0.0311395  
H227     H      0.594760000000     0.036540000000     0.209100000000     0.0366395  
H228     H      0.664870000000     0.077150000000     0.209220000000     0.0374475  
H229     H      0.903810000000     0.457270000000     0.282480000000     0.0279149  
H230     H      0.845940000000     0.456520000000     0.280980000000     0.0322697  
H231     H      0.846390000000     0.042620000000     0.228100000000     0.0387397  
H232     H      0.915810000000     0.078450000000     0.241460000000     0.0347112  
H233     H      0.979690000000     0.345630000000     0.206350000000     0.0267631  
H234     H      0.979870000000     0.403310000000     0.204630000000     0.0320267  
H235     H      0.534650000000     0.405590000000     0.289400000000     0.0375517  
H236     H      0.524390000000     0.335230000000     0.326180000000     0.036808   
H237     H      0.967880000000     0.155830000000     0.214820000000     0.0270704  
H238     H      0.969880000000     0.098360000000     0.212230000000     0.0327386  
H239     H      0.518900000000     0.095830000000     0.300500000000     0.0383367  
H240     H      0.558130000000     0.165960000000     0.308050000000     0.0374518  
H241     H      0.905880000000     0.218790000000     0.967210000000     0.0284875  
H242     H      0.848320000000     0.219340000000     0.964260000000     0.0316151  
H243     H      0.844610000000     0.279650000000     0.545130000000     0.039106   
H244     H      0.913270000000     0.270910000000     0.584230000000     0.0360042  
H245     H      0.655370000000     0.294420000000     0.529250000000     0.0281674  
H246     H      0.597710000000     0.297530000000     0.527760000000     0.0314747  
H247     H      0.594980000000     0.217960000000     0.965720000000     0.0361785  
H248     H      0.664690000000     0.217020000000     0.924930000000     0.0364998  
H249     H      0.783930000000     0.407260000000     0.960110000000     0.0304223  
H250     H      0.782120000000     0.349400000000     0.957440000000     0.0326755  
H251     H      0.722370000000     0.347770000000     0.538790000000     0.0385312  
H252     H      0.734450000000     0.413680000000     0.578570000000     0.0329643  
H253     H      0.707630000000     0.156430000000     0.474700000000     0.0298174  
H254     H      0.706160000000     0.098880000000     0.476580000000     0.0325096  
H255     H      0.790480000000     0.098530000000     0.532140000000     0.0388334  
H256     H      0.826890000000     0.168910000000     0.520190000000     0.0349055  
H257     H      0.784270000000     0.538050000000     0.846410000000     0.0297525  
H258     H      0.787150000000     0.536460000000     0.903930000000     0.0332615  
H259     H      0.707110000000     0.474940000000     0.906400000000     0.0393267  
H260     H      0.667590000000     0.484120000000     0.839160000000     0.0327874  
H261     H      0.717080000000     0.465990000000     0.597360000000     0.0293166  
H262     H      0.719560000000     0.462760000000     0.654780000000     0.0311634  
H263     H      0.787750000000     0.037130000000     0.656020000000     0.0372572  
H264     H      0.827290000000     0.035630000000     0.585620000000     0.0357484  
H265     H      0.537490000000     0.226060000000     0.907450000000     0.0286476  
H266     H      0.539970000000     0.226660000000     0.850290000000     0.0331016  
H267     H      0.955960000000     0.282690000000     0.846750000000     0.0373367  
H268     H      0.918270000000     0.272460000000     0.917160000000     0.0352833  
H269     H      0.030360000000     0.209880000000     0.596520000000     0.0331563  
H270     H      0.032940000000     0.207840000000     0.654130000000     0.0276849  
H271     H      0.979510000000     0.292960000000     0.659980000000     0.0328367  
H272     H      0.998740000000     0.335890000000     0.595710000000     0.034799   
H273     H      0.654120000000     0.470490000000     0.784050000000     0.0304436  
H274     H      0.597050000000     0.472100000000     0.786750000000     0.0312989  
H275     H      0.594760000000     0.036540000000     0.709100000000     0.0367593  
H276     H      0.664870000000     0.077150000000     0.709220000000     0.0375036  
H277     H      0.903810000000     0.457270000000     0.782480000000     0.0280557  
H278     H      0.845940000000     0.456520000000     0.780980000000     0.0323837  
H279     H      0.846390000000     0.042620000000     0.728100000000     0.038767   
H280     H      0.915810000000     0.078450000000     0.741460000000     0.0347594  
H281     H      0.979690000000     0.345630000000     0.706350000000     0.0268119  
H282     H      0.979870000000     0.403310000000     0.704630000000     0.0321411  
H283     H      0.534650000000     0.405590000000     0.789400000000     0.0377177  
H284     H      0.524390000000     0.335230000000     0.826180000000     0.0370117  
H285     H      0.967880000000     0.155830000000     0.714820000000     0.0271431  
H286     H      0.969880000000     0.098360000000     0.712230000000     0.0328095  
H287     H      0.518900000000     0.095830000000     0.800510000000     0.0385263  
H288     H      0.558130000000     0.165960000000     0.808050000000     0.0375044  
H289     H      0.905880000000     0.718790000000     0.467210000000     0.0280985  
H290     H      0.848320000000     0.719340000000     0.464260000000     0.0314411  
H291     H      0.844610000000     0.779650000000     0.045130000000     0.0390124  
H292     H      0.913270000000     0.770910000000     0.084230000000     0.0360813  
H293     H      0.655370000000     0.794420000000     0.029250000000     0.028222   
H294     H      0.597710000000     0.797530000000     0.027760000000     0.0316587  
H295     H      0.594980000000     0.717960000000     0.465720000000     0.0359282  
H296     H      0.664690000000     0.717020000000     0.424930000000     0.0365736  
H297     H      0.783930000000     0.907260000000     0.460110000000     0.0304914  
H298     H      0.782120000000     0.849400000000     0.457440000000     0.0324264  
H299     H      0.722370000000     0.847760000000     0.038790000000     0.0389143  
H300     H      0.734450000000     0.913680000000     0.078570000000     0.032972   
H301     H      0.707630000000     0.656420000000     0.974700000000     0.0299186  
H302     H      0.706160000000     0.598880000000     0.976580000000     0.0332676  
H303     H      0.790480000000     0.598530000000     0.032140000000     0.0386485  
H304     H      0.826890000000     0.668910000000     0.020190000000     0.0336501  
H305     H      0.784270000000     0.038050000000     0.346410000000     0.0293972  
H306     H      0.787150000000     0.036450000000     0.403930000000     0.0323016  
H307     H      0.707110000000     0.974940000000     0.406400000000     0.0389275  
H308     H      0.667590000000     0.984120000000     0.339160000000     0.03338    
H309     H      0.717080000000     0.965990000000     0.097360000000     0.0290377  
H310     H      0.719560000000     0.962760000000     0.154780000000     0.0320324  
H311     H      0.787750000000     0.537130000000     0.156020000000     0.0364477  
H312     H      0.827290000000     0.535640000000     0.085620000000     0.0357564  
H313     H      0.537490000000     0.726060000000     0.407450000000     0.028324   
H314     H      0.539970000000     0.726660000000     0.350290000000     0.0330276  
H315     H      0.955960000000     0.782690000000     0.346750000000     0.0373067  
H316     H      0.918270000000     0.772450000000     0.417160000000     0.0348556  
H317     H      0.030360000000     0.709870000000     0.096520000000     0.0327379  
H318     H      0.032940000000     0.707840000000     0.154130000000     0.0275532  
H319     H      0.979510000000     0.792960000000     0.159980000000     0.0328767  
H320     H      0.998740000000     0.835890000000     0.095710000000     0.0347169  
H321     H      0.654120000000     0.970490000000     0.284050000000     0.0302602  
H322     H      0.597050000000     0.972110000000     0.286750000000     0.0313123  
H323     H      0.594760000000     0.536540000000     0.209100000000     0.0367713  
H324     H      0.664870000000     0.577150000000     0.209220000000     0.0374007  
H325     H      0.903810000000     0.957270000000     0.282480000000     0.0279606  
H326     H      0.845940000000     0.956520000000     0.280980000000     0.0328109  
H327     H      0.846390000000     0.542620000000     0.228100000000     0.0381813  
H328     H      0.915810000000     0.578450000000     0.241460000000     0.0348949  
H329     H      0.979690000000     0.845630000000     0.206350000000     0.0268648  
H330     H      0.979870000000     0.903310000000     0.204630000000     0.0324142  
H331     H      0.534650000000     0.905590000000     0.289400000000     0.0377793  
H332     H      0.524390000000     0.835230000000     0.326180000000     0.0368632  
H333     H      0.967880000000     0.655830000000     0.214820000000     0.0270907  
H334     H      0.969880000000     0.598360000000     0.212230000000     0.0328153  
H335     H      0.518900000000     0.595830000000     0.300500000000     0.0386316  
H336     H      0.558130000000     0.665960000000     0.308050000000     0.0375063  
H337     H      0.905880000000     0.718790000000     0.967210000000     0.0285284  
H338     H      0.848320000000     0.719340000000     0.964260000000     0.0316588  
H339     H      0.844610000000     0.779650000000     0.545130000000     0.0391543  
H340     H      0.913270000000     0.770910000000     0.584230000000     0.0359957  
H341     H      0.655370000000     0.794420000000     0.529250000000     0.0282384  
H342     H      0.597710000000     0.797530000000     0.527760000000     0.0315618  
H343     H      0.594980000000     0.717960000000     0.965720000000     0.036234   
H344     H      0.664690000000     0.717020000000     0.924930000000     0.0365316  
H345     H      0.783930000000     0.907260000000     0.960110000000     0.0308429  
H346     H      0.782120000000     0.849400000000     0.957440000000     0.0327763  
H347     H      0.722370000000     0.847760000000     0.538790000000     0.0385683  
H348     H      0.734450000000     0.913680000000     0.578570000000     0.033187   
H349     H      0.707630000000     0.656420000000     0.474700000000     0.0298687  
H350     H      0.706160000000     0.598880000000     0.476580000000     0.0326845  
H351     H      0.790480000000     0.598530000000     0.532140000000     0.0388834  
H352     H      0.826890000000     0.668910000000     0.520190000000     0.0349561  
H353     H      0.784270000000     0.038050000000     0.846410000000     0.0295896  
H354     H      0.787150000000     0.036450000000     0.903930000000     0.0330553  
H355     H      0.707110000000     0.974940000000     0.906400000000     0.0395463  
H356     H      0.667590000000     0.984120000000     0.839160000000     0.0335861  
H357     H      0.717080000000     0.965990000000     0.597360000000     0.0291945  
H358     H      0.719560000000     0.962760000000     0.654780000000     0.0321022  
H359     H      0.787750000000     0.537130000000     0.656020000000     0.0364955  
H360     H      0.827290000000     0.535640000000     0.585620000000     0.0361113  
H361     H      0.537490000000     0.726060000000     0.907450000000     0.0286992  
H362     H      0.539970000000     0.726660000000     0.850290000000     0.0331286  
H363     H      0.955960000000     0.782690000000     0.846750000000     0.0373635  
H364     H      0.918270000000     0.772450000000     0.917160000000     0.035284   
H365     H      0.030360000000     0.709870000000     0.596520000000     0.0332286  
H366     H      0.032940000000     0.707840000000     0.654130000000     0.0277035  
H367     H      0.979510000000     0.792960000000     0.659980000000     0.0329002  
H368     H      0.998740000000     0.835890000000     0.595710000000     0.0350241  
H369     H      0.654120000000     0.970490000000     0.784050000000     0.0303192  
H370     H      0.597050000000     0.972110000000     0.786750000000     0.0314698  
H371     H      0.594760000000     0.536540000000     0.709100000000     0.0368912  
H372     H      0.664870000000     0.577150000000     0.709220000000     0.0374567  
H373     H      0.903810000000     0.957270000000     0.782480000000     0.0281     
H374     H      0.845940000000     0.956520000000     0.780980000000     0.0329215  
H375     H      0.846390000000     0.542620000000     0.728100000000     0.0382115  
H376     H      0.915810000000     0.578450000000     0.741460000000     0.0349418  
H377     H      0.979690000000     0.845630000000     0.706350000000     0.0269131  
H378     H      0.979870000000     0.903310000000     0.704630000000     0.0325266  
H379     H      0.534650000000     0.905590000000     0.789400000000     0.0379433  
H380     H      0.524390000000     0.835230000000     0.826180000000     0.0370656  
H381     H      0.967880000000     0.655830000000     0.714820000000     0.0271635  
H382     H      0.969880000000     0.598360000000     0.712230000000     0.0328863  
H383     H      0.518900000000     0.595830000000     0.800510000000     0.0388197  
H384     H      0.558130000000     0.665960000000     0.808050000000     0.0375585  
N1       N      0.342480000000     0.249760000000     0.004390000000    -0.190003   
N2       N      0.408280000000     0.250820000000     0.506420000000    -0.195404   
N3       N      0.092500000000     0.257720000000     0.496890000000    -0.187865   
N4       N      0.158210000000     0.255730000000     0.996610000000    -0.193436   
N5       N      0.252140000000     0.344620000000     0.497960000000    -0.188136   
N6       N      0.252680000000     0.410420000000     0.499870000000    -0.19595    
N7       N      0.248280000000     0.094770000000     0.504460000000    -0.187957   
N8       N      0.248470000000     0.160470000000     0.504340000000    -0.196224   
N9       N      0.247420000000     0.005380000000     0.409110000000    -0.189727   
N10      N      0.245520000000     0.005510000000     0.343360000000    -0.196973   
N11      N      0.253970000000     0.999640000000     0.159210000000    -0.183135   
N12      N      0.253530000000     0.000980000000     0.093460000000    -0.197344   
N13      N      0.998080000000     0.254740000000     0.344490000000    -0.188354   
N14      N      0.996630000000     0.255940000000     0.410210000000    -0.196667   
N15      N      0.005640000000     0.249860000000     0.160560000000    -0.189003   
N16      N      0.004930000000     0.253910000000     0.094810000000    -0.19262    
N17      N      0.092030000000     0.504670000000     0.248230000000    -0.188369   
N18      N      0.157780000000     0.505140000000     0.247230000000    -0.195467   
N19      N      0.342160000000     0.499500000000     0.254350000000    -0.187717   
N20      N      0.407930000000     0.499100000000     0.254220000000    -0.195995   
N21      N      0.506870000000     0.408460000000     0.247170000000    -0.187163   
N22      N      0.508740000000     0.342580000000     0.247750000000    -0.195576   
N23      N      0.494760000000     0.092980000000     0.256120000000    -0.18704    
N24      N      0.494460000000     0.158830000000     0.257770000000    -0.196341   
N25      N      0.342480000000     0.249760000000     0.504390000000    -0.187857   
N26      N      0.408280000000     0.250820000000     0.006420000000    -0.19857    
N27      N      0.092500000000     0.257720000000     0.996890000000    -0.18535    
N28      N      0.158210000000     0.255730000000     0.496610000000    -0.19571    
N29      N      0.252140000000     0.344620000000     0.997970000000    -0.185809   
N30      N      0.252680000000     0.410420000000     0.999870000000    -0.193522   
N31      N      0.248280000000     0.094770000000     0.004460000000    -0.191117   
N32      N      0.248470000000     0.160470000000     0.004340000000    -0.198407   
N33      N      0.247420000000     0.005380000000     0.909110000000    -0.189211   
N34      N      0.245520000000     0.005510000000     0.843360000000    -0.196957   
N35      N      0.253970000000     0.999640000000     0.659210000000    -0.18313    
N36      N      0.253530000000     0.000980000000     0.593460000000    -0.197393   
N37      N      0.998080000000     0.254740000000     0.844490000000    -0.18835    
N38      N      0.996630000000     0.255940000000     0.910210000000    -0.196255   
N39      N      0.005640000000     0.249860000000     0.660560000000    -0.188993   
N40      N      0.004930000000     0.253910000000     0.594810000000    -0.192693   
N41      N      0.092030000000     0.504670000000     0.748230000000    -0.18833    
N42      N      0.157780000000     0.505140000000     0.747230000000    -0.195458   
N43      N      0.342160000000     0.499500000000     0.754350000000    -0.187701   
N44      N      0.407930000000     0.499100000000     0.754230000000    -0.195944   
N45      N      0.506870000000     0.408460000000     0.747170000000    -0.187126   
N46      N      0.508740000000     0.342580000000     0.747750000000    -0.195565   
N47      N      0.494760000000     0.092980000000     0.756120000000    -0.187035   
N48      N      0.494460000000     0.158830000000     0.757770000000    -0.196314   
N49      N      0.342480000000     0.749760000000     0.004390000000    -0.189993   
N50      N      0.408280000000     0.750810000000     0.506420000000    -0.195381   
N51      N      0.092500000000     0.757720000000     0.496890000000    -0.187874   
N52      N      0.158210000000     0.755730000000     0.996610000000    -0.193433   
N53      N      0.252140000000     0.844620000000     0.497960000000    -0.188135   
N54      N      0.252680000000     0.910420000000     0.499870000000    -0.19569    
N55      N      0.248280000000     0.594770000000     0.504460000000    -0.187989   
N56      N      0.248470000000     0.660470000000     0.504340000000    -0.196216   
N57      N      0.247420000000     0.505380000000     0.409110000000    -0.187887   
N58      N      0.245520000000     0.505510000000     0.343360000000    -0.195798   
N59      N      0.253970000000     0.499640000000     0.159210000000    -0.188081   
N60      N      0.253530000000     0.500980000000     0.093460000000    -0.195047   
N61      N      0.998080000000     0.754740000000     0.344490000000    -0.188355   
N62      N      0.996630000000     0.755940000000     0.410210000000    -0.196641   
N63      N      0.005640000000     0.749860000000     0.160560000000    -0.189005   
N64      N      0.004930000000     0.753910000000     0.094810000000    -0.192587   
N65      N      0.092030000000     0.004670000000     0.248230000000    -0.19031    
N66      N      0.157780000000     0.005140000000     0.247230000000    -0.196726   
N67      N      0.342160000000     0.999510000000     0.254350000000    -0.18323    
N68      N      0.407930000000     0.999100000000     0.254220000000    -0.194855   
N69      N      0.506870000000     0.908460000000     0.247170000000    -0.187066   
N70      N      0.508740000000     0.842580000000     0.247750000000    -0.195565   
N71      N      0.494760000000     0.592980000000     0.256120000000    -0.186908   
N72      N      0.494460000000     0.658830000000     0.257770000000    -0.196354   
N73      N      0.342480000000     0.749760000000     0.504390000000    -0.187853   
N74      N      0.408280000000     0.750810000000     0.006420000000    -0.19854    
N75      N      0.092500000000     0.757720000000     0.996890000000    -0.185367   
N76      N      0.158210000000     0.755730000000     0.496610000000    -0.1957     
N77      N      0.252140000000     0.844620000000     0.997970000000    -0.18582    
N78      N      0.252680000000     0.910420000000     0.999870000000    -0.193273   
N79      N      0.248280000000     0.594770000000     0.004460000000    -0.191146   
N80      N      0.248470000000     0.660470000000     0.004340000000    -0.198397   
N81      N      0.247420000000     0.505380000000     0.909110000000    -0.187384   
N82      N      0.245520000000     0.505510000000     0.843360000000    -0.19579    
N83      N      0.253970000000     0.499640000000     0.659210000000    -0.188057   
N84      N      0.253530000000     0.500980000000     0.593460000000    -0.195103   
N85      N      0.998080000000     0.754740000000     0.844490000000    -0.188352   
N86      N      0.996630000000     0.755940000000     0.910210000000    -0.19623    
N87      N      0.005640000000     0.749860000000     0.660560000000    -0.188995   
N88      N      0.004930000000     0.753910000000     0.594810000000    -0.19266    
N89      N      0.092030000000     0.004670000000     0.748230000000    -0.190261   
N90      N      0.157780000000     0.005140000000     0.747230000000    -0.196711   
N91      N      0.342160000000     0.999510000000     0.754350000000    -0.183237   
N92      N      0.407930000000     0.999100000000     0.754230000000    -0.194811   
N93      N      0.506870000000     0.908460000000     0.747170000000    -0.187029   
N94      N      0.508740000000     0.842580000000     0.747750000000    -0.195554   
N95      N      0.494760000000     0.592980000000     0.756120000000    -0.186903   
N96      N      0.494460000000     0.658830000000     0.757770000000    -0.196327   
N97      N      0.842480000000     0.249760000000     0.004390000000    -0.190003   
N98      N      0.908280000000     0.250820000000     0.506420000000    -0.195462   
N99      N      0.592510000000     0.257720000000     0.496890000000    -0.187867   
N100     N      0.658210000000     0.255730000000     0.996610000000    -0.193521   
N101     N      0.752140000000     0.344620000000     0.497960000000    -0.188139   
N102     N      0.752680000000     0.410420000000     0.499870000000    -0.195962   
N103     N      0.748280000000     0.094770000000     0.504460000000    -0.187966   
N104     N      0.748470000000     0.160470000000     0.504340000000    -0.196228   
N105     N      0.747420000000     0.005380000000     0.409110000000    -0.189743   
N106     N      0.745520000000     0.005510000000     0.343360000000    -0.196982   
N107     N      0.753970000000     0.999640000000     0.159210000000    -0.183102   
N108     N      0.753530000000     0.000980000000     0.093460000000    -0.197366   
N109     N      0.498080000000     0.254740000000     0.344490000000    -0.187606   
N110     N      0.496630000000     0.255940000000     0.410210000000    -0.195991   
N111     N      0.505640000000     0.249860000000     0.160560000000    -0.189793   
N112     N      0.504930000000     0.253910000000     0.094810000000    -0.193721   
N113     N      0.592030000000     0.504670000000     0.248230000000    -0.188433   
N114     N      0.657780000000     0.505140000000     0.247230000000    -0.195483   
N115     N      0.842160000000     0.499500000000     0.254350000000    -0.187715   
N116     N      0.907930000000     0.499100000000     0.254220000000    -0.196061   
N117     N      0.006870000000     0.408460000000     0.247170000000    -0.186055   
N118     N      0.008740000000     0.342580000000     0.247750000000    -0.194876   
N119     N      0.994760000000     0.092980000000     0.256120000000    -0.188146   
N120     N      0.994460000000     0.158830000000     0.257770000000    -0.196995   
N121     N      0.842480000000     0.249760000000     0.504390000000    -0.18786    
N122     N      0.908280000000     0.250820000000     0.006420000000    -0.198623   
N123     N      0.592510000000     0.257720000000     0.996890000000    -0.185343   
N124     N      0.658210000000     0.255730000000     0.496610000000    -0.195799   
N125     N      0.752140000000     0.344620000000     0.997970000000    -0.185811   
N126     N      0.752680000000     0.410420000000     0.999870000000    -0.193531   
N127     N      0.748280000000     0.094770000000     0.004460000000    -0.191128   
N128     N      0.748470000000     0.160470000000     0.004340000000    -0.198413   
N129     N      0.747420000000     0.005380000000     0.909110000000    -0.189227   
N130     N      0.745520000000     0.005510000000     0.843360000000    -0.196966   
N131     N      0.753970000000     0.999640000000     0.659210000000    -0.183096   
N132     N      0.753530000000     0.000980000000     0.593460000000    -0.197415   
N133     N      0.498080000000     0.254740000000     0.844490000000    -0.187604   
N134     N      0.496630000000     0.255940000000     0.910210000000    -0.195578   
N135     N      0.505640000000     0.249860000000     0.660560000000    -0.189783   
N136     N      0.504930000000     0.253910000000     0.594810000000    -0.193796   
N137     N      0.592030000000     0.504670000000     0.748230000000    -0.188393   
N138     N      0.657780000000     0.505140000000     0.747230000000    -0.195474   
N139     N      0.842160000000     0.499500000000     0.754350000000    -0.1877     
N140     N      0.907930000000     0.499100000000     0.754230000000    -0.19601    
N141     N      0.006870000000     0.408460000000     0.747170000000    -0.186019   
N142     N      0.008740000000     0.342580000000     0.747750000000    -0.194866   
N143     N      0.994760000000     0.092980000000     0.756120000000    -0.188138   
N144     N      0.994460000000     0.158830000000     0.757770000000    -0.196967   
N145     N      0.842480000000     0.749760000000     0.004390000000    -0.189993   
N146     N      0.908280000000     0.750810000000     0.506420000000    -0.195439   
N147     N      0.592510000000     0.757720000000     0.496890000000    -0.187876   
N148     N      0.658210000000     0.755730000000     0.996610000000    -0.193519   
N149     N      0.752140000000     0.844620000000     0.497960000000    -0.188138   
N150     N      0.752680000000     0.910420000000     0.499870000000    -0.195701   
N151     N      0.748280000000     0.594770000000     0.504460000000    -0.187999   
N152     N      0.748470000000     0.660470000000     0.504340000000    -0.19622    
N153     N      0.747420000000     0.505380000000     0.409110000000    -0.187897   
N154     N      0.745520000000     0.505510000000     0.343360000000    -0.195803   
N155     N      0.753970000000     0.499640000000     0.159210000000    -0.188063   
N156     N      0.753530000000     0.500980000000     0.093460000000    -0.195061   
N157     N      0.498080000000     0.754740000000     0.344490000000    -0.187612   
N158     N      0.496630000000     0.755940000000     0.410210000000    -0.195968   
N159     N      0.505640000000     0.749860000000     0.160560000000    -0.189791   
N160     N      0.504930000000     0.753910000000     0.094810000000    -0.193681   
N161     N      0.592030000000     0.004670000000     0.248230000000    -0.190384   
N162     N      0.657780000000     0.005140000000     0.247230000000    -0.196747   
N163     N      0.842160000000     0.999510000000     0.254350000000    -0.183217   
N164     N      0.907930000000     0.999100000000     0.254220000000    -0.194918   
N165     N      0.006870000000     0.908460000000     0.247170000000    -0.185967   
N166     N      0.008740000000     0.842580000000     0.247750000000    -0.194871   
N167     N      0.994760000000     0.592980000000     0.256120000000    -0.188009   
N168     N      0.994460000000     0.658830000000     0.257770000000    -0.197005   
N169     N      0.842480000000     0.749760000000     0.504390000000    -0.187856   
N170     N      0.908280000000     0.750810000000     0.006420000000    -0.198593   
N171     N      0.592510000000     0.757720000000     0.996890000000    -0.18536    
N172     N      0.658210000000     0.755730000000     0.496610000000    -0.195789   
N173     N      0.752140000000     0.844620000000     0.997970000000    -0.185821   
N174     N      0.752680000000     0.910420000000     0.999870000000    -0.193281   
N175     N      0.748280000000     0.594770000000     0.004460000000    -0.191158   
N176     N      0.748470000000     0.660470000000     0.004340000000    -0.198402   
N177     N      0.747420000000     0.505380000000     0.909110000000    -0.187394   
N178     N      0.745520000000     0.505510000000     0.843360000000    -0.195794   
N179     N      0.753970000000     0.499640000000     0.659210000000    -0.188038   
N180     N      0.753530000000     0.500980000000     0.593460000000    -0.195117   
N181     N      0.498080000000     0.754740000000     0.844490000000    -0.18761    
N182     N      0.496630000000     0.755940000000     0.910210000000    -0.195557   
N183     N      0.505640000000     0.749860000000     0.660560000000    -0.189781   
N184     N      0.504930000000     0.753910000000     0.594810000000    -0.193756   
N185     N      0.592030000000     0.004670000000     0.748230000000    -0.190335   
N186     N      0.657780000000     0.005140000000     0.747230000000    -0.196732   
N187     N      0.842160000000     0.999510000000     0.754350000000    -0.183223   
N188     N      0.907930000000     0.999100000000     0.754230000000    -0.194873   
N189     N      0.006870000000     0.908460000000     0.747170000000    -0.185932   
N190     N      0.008740000000     0.842580000000     0.747750000000    -0.19486    
N191     N      0.994760000000     0.592980000000     0.756120000000    -0.188002   
N192     N      0.994460000000     0.658830000000     0.757770000000    -0.196977   
O1       O      0.995580000000     0.046990000000     0.227270000000    -0.55092    
O2       O      0.501180000000     0.457010000000     0.222740000000    -0.548429   
O3       O      0.454140000000     0.000060000000     0.226440000000    -0.55805    
O4       O      0.043740000000     0.505590000000     0.223360000000    -0.550025   
O5       O      0.045830000000     0.001150000000     0.276050000000    -0.562855   
O6       O      0.456050000000     0.496100000000     0.279190000000    -0.551609   
O7       O      0.004350000000     0.454490000000     0.275480000000    -0.558056   
O8       O      0.498960000000     0.044130000000     0.279960000000    -0.556494   
O9       O      0.031630000000     0.293300000000     0.251520000000    -0.549053   
O10      O      0.024400000000     0.203720000000     0.257080000000    -0.554319   
O11      O      0.029950000000     0.244950000000     0.208750000000    -0.551322   
O12      O      0.026130000000     0.250620000000     0.298400000000    -0.555099   
O13      O      0.473520000000     0.255750000000     0.295880000000    -0.552255   
O14      O      0.477440000000     0.251520000000     0.206270000000    -0.559447   
O15      O      0.471810000000     0.207950000000     0.252490000000    -0.55227    
O16      O      0.478950000000     0.297620000000     0.248160000000    -0.556435   
O17      O      0.206100000000     0.030280000000     0.247110000000    -0.551039   
O18      O      0.295730000000     0.027130000000     0.252200000000    -0.557877   
O19      O      0.254180000000     0.027240000000     0.205580000000    -0.555464   
O20      O      0.249190000000     0.030340000000     0.295210000000    -0.552966   
O21      O      0.246180000000     0.477480000000     0.297120000000    -0.552586   
O22      O      0.250080000000     0.474440000000     0.207270000000    -0.550642   
O23      O      0.293810000000     0.474280000000     0.254940000000    -0.550499   
O24      O      0.204020000000     0.477490000000     0.250780000000    -0.556516   
O25      O      0.278450000000     0.500680000000     0.045240000000    -0.550571   
O26      O      0.275350000000     0.007540000000     0.455610000000    -0.552762   
O27      O      0.275780000000     0.048160000000     0.004390000000    -0.554294   
O28      O      0.277990000000     0.458480000000     0.496490000000    -0.550393   
O29      O      0.225490000000     0.456980000000     0.002880000000    -0.563279   
O30      O      0.222980000000     0.046710000000     0.501320000000    -0.554365   
O31      O      0.222910000000     0.500790000000     0.457240000000    -0.556543   
O32      O      0.225550000000     0.001570000000     0.047070000000    -0.553341   
O33      O      0.504110000000     0.227840000000     0.046740000000    -0.549516   
O34      O      0.000100000000     0.228970000000     0.456820000000    -0.555539   
O35      O      0.046260000000     0.229980000000     0.998870000000    -0.554219   
O36      O      0.456640000000     0.226410000000     0.503020000000    -0.554099   
O37      O      0.454440000000     0.279220000000     0.006330000000    -0.549794   
O38      O      0.044340000000     0.282900000000     0.500520000000    -0.547689   
O39      O      0.495720000000     0.281770000000     0.457960000000    -0.550044   
O40      O      0.002040000000     0.280570000000     0.047480000000    -0.553678   
O41      O      0.206570000000     0.254240000000     0.472150000000    -0.551422   
O42      O      0.296150000000     0.247080000000     0.476170000000    -0.551917   
O43      O      0.247300000000     0.206420000000     0.475940000000    -0.552509   
O44      O      0.255390000000     0.296290000000     0.472640000000    -0.546702   
O45      O      0.248590000000     0.298170000000     0.025050000000    -0.570877   
O46      O      0.249850000000     0.208780000000     0.028770000000    -0.555131   
O47      O      0.294080000000     0.254340000000     0.028510000000    -0.555216   
O48      O      0.204250000000     0.254130000000     0.025040000000    -0.561056   
O49      O      0.995580000000     0.046990000000     0.727270000000    -0.550824   
O50      O      0.501180000000     0.457010000000     0.722740000000    -0.548297   
O51      O      0.454140000000     0.000060000000     0.726440000000    -0.557938   
O52      O      0.043740000000     0.505590000000     0.723360000000    -0.549887   
O53      O      0.045830000000     0.001150000000     0.776050000000    -0.562692   
O54      O      0.456050000000     0.496100000000     0.779190000000    -0.551423   
O55      O      0.004350000000     0.454490000000     0.775480000000    -0.557918   
O56      O      0.498960000000     0.044130000000     0.779960000000    -0.556317   
O57      O      0.031630000000     0.293300000000     0.751520000000    -0.54905    
O58      O      0.024400000000     0.203720000000     0.757080000000    -0.554312   
O59      O      0.029950000000     0.244950000000     0.708750000000    -0.551281   
O60      O      0.026130000000     0.250620000000     0.798400000000    -0.555084   
O61      O      0.473520000000     0.255750000000     0.795880000000    -0.552217   
O62      O      0.477440000000     0.251520000000     0.706270000000    -0.559433   
O63      O      0.471810000000     0.207950000000     0.752490000000    -0.552234   
O64      O      0.478950000000     0.297620000000     0.748160000000    -0.556414   
O65      O      0.206100000000     0.030280000000     0.747110000000    -0.551028   
O66      O      0.295730000000     0.027130000000     0.752200000000    -0.557854   
O67      O      0.254180000000     0.027240000000     0.705580000000    -0.555462   
O68      O      0.249190000000     0.030340000000     0.795210000000    -0.552908   
O69      O      0.246180000000     0.477480000000     0.797120000000    -0.552553   
O70      O      0.250080000000     0.474440000000     0.707270000000    -0.55062    
O71      O      0.293810000000     0.474280000000     0.754940000000    -0.550466   
O72      O      0.204020000000     0.477490000000     0.750780000000    -0.556508   
O73      O      0.278450000000     0.500680000000     0.545240000000    -0.552046   
O74      O      0.275350000000     0.007540000000     0.955610000000    -0.547048   
O75      O      0.275780000000     0.048160000000     0.504390000000    -0.55519    
O76      O      0.277990000000     0.458480000000     0.996490000000    -0.546059   
O77      O      0.225490000000     0.456980000000     0.502880000000    -0.557854   
O78      O      0.222980000000     0.046710000000     0.001320000000    -0.555711   
O79      O      0.222910000000     0.500790000000     0.957250000000    -0.551838   
O80      O      0.225550000000     0.001570000000     0.547070000000    -0.554092   
O81      O      0.504110000000     0.227840000000     0.546740000000    -0.550957   
O82      O      0.000100000000     0.228970000000     0.956820000000    -0.549919   
O83      O      0.046260000000     0.229980000000     0.498870000000    -0.558664   
O84      O      0.456640000000     0.226410000000     0.003020000000    -0.553943   
O85      O      0.454440000000     0.279220000000     0.506330000000    -0.549273   
O86      O      0.044340000000     0.282900000000     0.000520000000    -0.553102   
O87      O      0.495720000000     0.281770000000     0.957960000000    -0.545074   
O88      O      0.002040000000     0.280570000000     0.547480000000    -0.554561   
O89      O      0.206570000000     0.254240000000     0.972150000000    -0.553169   
O90      O      0.296150000000     0.247080000000     0.976170000000    -0.546836   
O91      O      0.247300000000     0.206420000000     0.975940000000    -0.5476     
O92      O      0.255390000000     0.296290000000     0.972640000000    -0.5482     
O93      O      0.248590000000     0.298170000000     0.525050000000    -0.566002   
O94      O      0.249850000000     0.208780000000     0.528770000000    -0.556775   
O95      O      0.294080000000     0.254340000000     0.528510000000    -0.556893   
O96      O      0.204250000000     0.254130000000     0.525040000000    -0.556031   
O97      O      0.995580000000     0.546990000000     0.227270000000    -0.551815   
O98      O      0.501180000000     0.957010000000     0.222740000000    -0.545252   
O99      O      0.454140000000     0.500060000000     0.226440000000    -0.555372   
O100     O      0.043740000000     0.005590000000     0.223360000000    -0.549844   
O101     O      0.045830000000     0.501160000000     0.276050000000    -0.558464   
O102     O      0.456050000000     0.996100000000     0.279190000000    -0.553429   
O103     O      0.004350000000     0.954490000000     0.275480000000    -0.559326   
O104     O      0.498960000000     0.544130000000     0.279960000000    -0.552914   
O105     O      0.031630000000     0.793300000000     0.251520000000    -0.548996   
O106     O      0.024400000000     0.703720000000     0.257080000000    -0.554325   
O107     O      0.029950000000     0.744950000000     0.208750000000    -0.551285   
O108     O      0.026130000000     0.750620000000     0.298400000000    -0.555106   
O109     O      0.473520000000     0.755740000000     0.295880000000    -0.552309   
O110     O      0.477440000000     0.751530000000     0.206270000000    -0.559462   
O111     O      0.471810000000     0.707950000000     0.252490000000    -0.552317   
O112     O      0.478950000000     0.797610000000     0.248160000000    -0.556562   
O113     O      0.206100000000     0.530280000000     0.247110000000    -0.552282   
O114     O      0.295730000000     0.527130000000     0.252200000000    -0.559835   
O115     O      0.254180000000     0.527240000000     0.205580000000    -0.557489   
O116     O      0.249190000000     0.530340000000     0.295210000000    -0.554173   
O117     O      0.246180000000     0.977480000000     0.297120000000    -0.549512   
O118     O      0.250080000000     0.974440000000     0.207270000000    -0.546775   
O119     O      0.293810000000     0.974280000000     0.254940000000    -0.546684   
O120     O      0.204020000000     0.977490000000     0.250780000000    -0.553449   
O121     O      0.278450000000     0.000680000000     0.045240000000    -0.550829   
O122     O      0.275350000000     0.507540000000     0.455610000000    -0.552626   
O123     O      0.275780000000     0.548160000000     0.004390000000    -0.554944   
O124     O      0.277990000000     0.958480000000     0.496490000000    -0.547399   
O125     O      0.225490000000     0.956980000000     0.002880000000    -0.560333   
O126     O      0.222980000000     0.546710000000     0.501320000000    -0.554937   
O127     O      0.222910000000     0.000790000000     0.457240000000    -0.55722    
O128     O      0.225550000000     0.501580000000     0.047070000000    -0.552775   
O129     O      0.504110000000     0.727840000000     0.046740000000    -0.549478   
O130     O      0.000100000000     0.728970000000     0.456820000000    -0.555491   
O131     O      0.046260000000     0.729980000000     0.998870000000    -0.554061   
O132     O      0.456640000000     0.726410000000     0.503020000000    -0.554042   
O133     O      0.454440000000     0.779220000000     0.006330000000    -0.549759   
O134     O      0.044340000000     0.782900000000     0.500520000000    -0.547746   
O135     O      0.495720000000     0.781770000000     0.457960000000    -0.549995   
O136     O      0.002040000000     0.780570000000     0.047480000000    -0.553673   
O137     O      0.206570000000     0.754240000000     0.472150000000    -0.551408   
O138     O      0.296150000000     0.747080000000     0.476170000000    -0.55189    
O139     O      0.247300000000     0.706420000000     0.475940000000    -0.552487   
O140     O      0.255390000000     0.796290000000     0.472640000000    -0.546682   
O141     O      0.248590000000     0.798170000000     0.025050000000    -0.570842   
O142     O      0.249850000000     0.708780000000     0.028770000000    -0.555125   
O143     O      0.294080000000     0.754340000000     0.028510000000    -0.555227   
O144     O      0.204250000000     0.754130000000     0.025040000000    -0.561027   
O145     O      0.995580000000     0.546990000000     0.727270000000    -0.551715   
O146     O      0.501180000000     0.957010000000     0.722740000000    -0.545133   
O147     O      0.454140000000     0.500060000000     0.726440000000    -0.555273   
O148     O      0.043740000000     0.005590000000     0.723360000000    -0.549708   
O149     O      0.045830000000     0.501160000000     0.776050000000    -0.558324   
O150     O      0.456050000000     0.996100000000     0.779190000000    -0.553236   
O151     O      0.004350000000     0.954490000000     0.775480000000    -0.559182   
O152     O      0.498960000000     0.544130000000     0.779960000000    -0.552756   
O153     O      0.031630000000     0.793300000000     0.751520000000    -0.548993   
O154     O      0.024400000000     0.703720000000     0.757080000000    -0.554318   
O155     O      0.029950000000     0.744950000000     0.708750000000    -0.551244   
O156     O      0.026130000000     0.750620000000     0.798400000000    -0.555091   
O157     O      0.473520000000     0.755740000000     0.795880000000    -0.552271   
O158     O      0.477440000000     0.751530000000     0.706270000000    -0.559447   
O159     O      0.471810000000     0.707950000000     0.752490000000    -0.552281   
O160     O      0.478950000000     0.797610000000     0.748160000000    -0.556542   
O161     O      0.206100000000     0.530280000000     0.747110000000    -0.552265   
O162     O      0.295730000000     0.527130000000     0.752200000000    -0.559803   
O163     O      0.254180000000     0.527240000000     0.705580000000    -0.557479   
O164     O      0.249190000000     0.530340000000     0.795210000000    -0.55411    
O165     O      0.246180000000     0.977480000000     0.797120000000    -0.549497   
O166     O      0.250080000000     0.974440000000     0.707270000000    -0.546768   
O167     O      0.293810000000     0.974280000000     0.754940000000    -0.546669   
O168     O      0.204020000000     0.977490000000     0.750780000000    -0.553456   
O169     O      0.278450000000     0.000680000000     0.545240000000    -0.552301   
O170     O      0.275350000000     0.507540000000     0.955610000000    -0.546911   
O171     O      0.275780000000     0.548160000000     0.504390000000    -0.555847   
O172     O      0.277990000000     0.958480000000     0.996490000000    -0.543088   
O173     O      0.225490000000     0.956980000000     0.502880000000    -0.554949   
O174     O      0.222980000000     0.546710000000     0.001320000000    -0.556284   
O175     O      0.222910000000     0.000790000000     0.957250000000    -0.552506   
O176     O      0.225550000000     0.501580000000     0.547070000000    -0.553527   
O177     O      0.504110000000     0.727840000000     0.546740000000    -0.550915   
O178     O      0.000100000000     0.728970000000     0.956820000000    -0.549884   
O179     O      0.046260000000     0.729980000000     0.498870000000    -0.558497   
O180     O      0.456640000000     0.726410000000     0.003020000000    -0.553888   
O181     O      0.454440000000     0.779220000000     0.506330000000    -0.549239   
O182     O      0.044340000000     0.782900000000     0.000520000000    -0.553147   
O183     O      0.495720000000     0.781770000000     0.957960000000    -0.545041   
O184     O      0.002040000000     0.780570000000     0.547480000000    -0.554553   
O185     O      0.206570000000     0.754240000000     0.972150000000    -0.55315    
O186     O      0.296150000000     0.747080000000     0.976170000000    -0.546822   
O187     O      0.247300000000     0.706420000000     0.975940000000    -0.547588   
O188     O      0.255390000000     0.796290000000     0.972640000000    -0.548174   
O189     O      0.248590000000     0.798170000000     0.525050000000    -0.565986   
O190     O      0.249850000000     0.708780000000     0.528770000000    -0.556764   
O191     O      0.294080000000     0.754340000000     0.528510000000    -0.556901   
O192     O      0.204250000000     0.754130000000     0.525040000000    -0.556016   
O193     O      0.495580000000     0.046990000000     0.227270000000    -0.551451   
O194     O      0.001180000000     0.457010000000     0.222740000000    -0.545991   
O195     O      0.954140000000     0.000060000000     0.226440000000    -0.557341   
O196     O      0.543740000000     0.505590000000     0.223360000000    -0.552041   
O197     O      0.545830000000     0.001150000000     0.276050000000    -0.562136   
O198     O      0.956050000000     0.496100000000     0.279190000000    -0.553651   
O199     O      0.504350000000     0.454490000000     0.275480000000    -0.557536   
O200     O      0.998960000000     0.044130000000     0.279960000000    -0.558903   
O201     O      0.531630000000     0.293300000000     0.251520000000    -0.548535   
O202     O      0.524400000000     0.203720000000     0.257080000000    -0.55588    
O203     O      0.529950000000     0.244950000000     0.208750000000    -0.550927   
O204     O      0.526130000000     0.250620000000     0.298400000000    -0.556598   
O205     O      0.973520000000     0.255750000000     0.295880000000    -0.551796   
O206     O      0.977430000000     0.251520000000     0.206270000000    -0.56082    
O207     O      0.971810000000     0.207950000000     0.252490000000    -0.551799   
O208     O      0.978950000000     0.297620000000     0.248160000000    -0.558022   
O209     O      0.706100000000     0.030280000000     0.247110000000    -0.551061   
O210     O      0.795730000000     0.027130000000     0.252200000000    -0.557863   
O211     O      0.754180000000     0.027240000000     0.205580000000    -0.55546    
O212     O      0.749190000000     0.030340000000     0.295210000000    -0.552976   
O213     O      0.746180000000     0.477480000000     0.297120000000    -0.552608   
O214     O      0.750080000000     0.474440000000     0.207270000000    -0.550652   
O215     O      0.793810000000     0.474280000000     0.254940000000    -0.550351   
O216     O      0.704020000000     0.477490000000     0.250780000000    -0.556708   
O217     O      0.778450000000     0.500680000000     0.045240000000    -0.550595   
O218     O      0.775350000000     0.007540000000     0.455610000000    -0.552802   
O219     O      0.775780000000     0.048160000000     0.004390000000    -0.554326   
O220     O      0.777990000000     0.458480000000     0.496490000000    -0.550531   
O221     O      0.725490000000     0.456980000000     0.002880000000    -0.563185   
O222     O      0.722980000000     0.046710000000     0.501320000000    -0.554386   
O223     O      0.722910000000     0.500790000000     0.457240000000    -0.556565   
O224     O      0.725550000000     0.001570000000     0.047070000000    -0.553371   
O225     O      0.004110000000     0.227840000000     0.046740000000    -0.549552   
O226     O      0.500090000000     0.228970000000     0.456820000000    -0.557086   
O227     O      0.546260000000     0.229980000000     0.998870000000    -0.55381    
O228     O      0.956640000000     0.226410000000     0.503020000000    -0.556106   
O229     O      0.954440000000     0.279220000000     0.006330000000    -0.549112   
O230     O      0.544340000000     0.282900000000     0.500520000000    -0.549672   
O231     O      0.995720000000     0.281770000000     0.457960000000    -0.548962   
O232     O      0.502040000000     0.280570000000     0.047480000000    -0.556276   
O233     O      0.706570000000     0.254240000000     0.472150000000    -0.551342   
O234     O      0.796150000000     0.247080000000     0.476170000000    -0.551927   
O235     O      0.747300000000     0.206420000000     0.475940000000    -0.552515   
O236     O      0.755390000000     0.296290000000     0.472640000000    -0.546713   
O237     O      0.748590000000     0.298170000000     0.025050000000    -0.570886   
O238     O      0.749850000000     0.208780000000     0.028770000000    -0.555139   
O239     O      0.794080000000     0.254340000000     0.028510000000    -0.555223   
O240     O      0.704250000000     0.254130000000     0.025040000000    -0.560998   
O241     O      0.495580000000     0.046990000000     0.727270000000    -0.551354   
O242     O      0.001180000000     0.457010000000     0.722740000000    -0.545861   
O243     O      0.954140000000     0.000060000000     0.726440000000    -0.557229   
O244     O      0.543740000000     0.505590000000     0.723360000000    -0.551902   
O245     O      0.545830000000     0.001150000000     0.776050000000    -0.561975   
O246     O      0.956050000000     0.496100000000     0.779190000000    -0.553461   
O247     O      0.504350000000     0.454490000000     0.775480000000    -0.557398   
O248     O      0.998960000000     0.044130000000     0.779960000000    -0.558723   
O249     O      0.531630000000     0.293300000000     0.751520000000    -0.548533   
O250     O      0.524400000000     0.203720000000     0.757080000000    -0.555872   
O251     O      0.529950000000     0.244950000000     0.708750000000    -0.550887   
O252     O      0.526130000000     0.250620000000     0.798400000000    -0.556579   
O253     O      0.973520000000     0.255750000000     0.795880000000    -0.551759   
O254     O      0.977430000000     0.251520000000     0.706270000000    -0.560805   
O255     O      0.971810000000     0.207950000000     0.752490000000    -0.551763   
O256     O      0.978950000000     0.297620000000     0.748160000000    -0.557999   
O257     O      0.706100000000     0.030280000000     0.747110000000    -0.55105    
O258     O      0.795730000000     0.027130000000     0.752200000000    -0.55784    
O259     O      0.754180000000     0.027240000000     0.705580000000    -0.555457   
O260     O      0.749190000000     0.030340000000     0.795210000000    -0.552918   
O261     O      0.746180000000     0.477480000000     0.797120000000    -0.552575   
O262     O      0.750080000000     0.474440000000     0.707270000000    -0.55063    
O263     O      0.793810000000     0.474280000000     0.754940000000    -0.550318   
O264     O      0.704020000000     0.477490000000     0.750780000000    -0.556699   
O265     O      0.778450000000     0.500680000000     0.545240000000    -0.552069   
O266     O      0.775350000000     0.007540000000     0.955610000000    -0.547088   
O267     O      0.775780000000     0.048160000000     0.504390000000    -0.555223   
O268     O      0.777990000000     0.458480000000     0.996490000000    -0.546199   
O269     O      0.725490000000     0.456980000000     0.502880000000    -0.557761   
O270     O      0.722980000000     0.046710000000     0.001320000000    -0.555733   
O271     O      0.722910000000     0.500790000000     0.957250000000    -0.551855   
O272     O      0.725550000000     0.001570000000     0.547070000000    -0.554123   
O273     O      0.004110000000     0.227840000000     0.546740000000    -0.550987   
O274     O      0.500090000000     0.228970000000     0.956820000000    -0.551432   
O275     O      0.546260000000     0.229980000000     0.498870000000    -0.558276   
O276     O      0.956640000000     0.226410000000     0.003020000000    -0.555949   
O277     O      0.954440000000     0.279220000000     0.506330000000    -0.54859    
O278     O      0.544340000000     0.282900000000     0.000520000000    -0.555097   
O279     O      0.995720000000     0.281770000000     0.957960000000    -0.544012   
O280     O      0.502040000000     0.280570000000     0.547480000000    -0.557166   
O281     O      0.706570000000     0.254240000000     0.972150000000    -0.553088   
O282     O      0.796150000000     0.247080000000     0.976170000000    -0.546849   
O283     O      0.747300000000     0.206420000000     0.975940000000    -0.547604   
O284     O      0.755390000000     0.296290000000     0.972640000000    -0.548212   
O285     O      0.748590000000     0.298170000000     0.525050000000    -0.566009   
O286     O      0.749850000000     0.208780000000     0.528770000000    -0.556782   
O287     O      0.794080000000     0.254340000000     0.528510000000    -0.5569     
O288     O      0.704250000000     0.254130000000     0.525040000000    -0.555968   
O289     O      0.495580000000     0.546990000000     0.227270000000    -0.552351   
O290     O      0.001180000000     0.957010000000     0.222740000000    -0.542833   
O291     O      0.954140000000     0.500060000000     0.226440000000    -0.554655   
O292     O      0.543740000000     0.005590000000     0.223360000000    -0.551867   
O293     O      0.545830000000     0.501160000000     0.276050000000    -0.557715   
O294     O      0.956050000000     0.996100000000     0.279190000000    -0.555447   
O295     O      0.504350000000     0.954490000000     0.275480000000    -0.558813   
O296     O      0.998960000000     0.544130000000     0.279960000000    -0.555338   
O297     O      0.531630000000     0.793300000000     0.251520000000    -0.548481   
O298     O      0.524400000000     0.703720000000     0.257080000000    -0.555878   
O299     O      0.529950000000     0.744950000000     0.208750000000    -0.550892   
O300     O      0.526130000000     0.750620000000     0.298400000000    -0.556596   
O301     O      0.973520000000     0.755740000000     0.295880000000    -0.551852   
O302     O      0.977430000000     0.751530000000     0.206270000000    -0.560825   
O303     O      0.971810000000     0.707950000000     0.252490000000    -0.551848   
O304     O      0.978950000000     0.797610000000     0.248160000000    -0.558138   
O305     O      0.706100000000     0.530280000000     0.247110000000    -0.552308   
O306     O      0.795730000000     0.527130000000     0.252200000000    -0.559827   
O307     O      0.754180000000     0.527240000000     0.205580000000    -0.557491   
O308     O      0.749190000000     0.530340000000     0.295210000000    -0.554187   
O309     O      0.746180000000     0.977480000000     0.297120000000    -0.549524   
O310     O      0.750080000000     0.974440000000     0.207270000000    -0.546772   
O311     O      0.793810000000     0.974280000000     0.254940000000    -0.546525   
O312     O      0.704020000000     0.977490000000     0.250780000000    -0.553629   
O313     O      0.778450000000     0.000680000000     0.045240000000    -0.550853   
O314     O      0.775350000000     0.507540000000     0.455610000000    -0.552665   
O315     O      0.775780000000     0.548160000000     0.004390000000    -0.554979   
O316     O      0.777990000000     0.958480000000     0.496490000000    -0.547528   
O317     O      0.725490000000     0.956980000000     0.002880000000    -0.560229   
O318     O      0.722980000000     0.546710000000     0.501320000000    -0.55496    
O319     O      0.722910000000     0.000790000000     0.457240000000    -0.557244   
O320     O      0.725550000000     0.501580000000     0.047070000000    -0.552803   
O321     O      0.004110000000     0.727840000000     0.046740000000    -0.549513   
O322     O      0.500090000000     0.728970000000     0.456820000000    -0.55703    
O323     O      0.546260000000     0.729980000000     0.998870000000    -0.553656   
O324     O      0.956640000000     0.726410000000     0.503020000000    -0.556039   
O325     O      0.954440000000     0.779220000000     0.006330000000    -0.549081   
O326     O      0.544340000000     0.782900000000     0.500520000000    -0.549717   
O327     O      0.995720000000     0.781770000000     0.457960000000    -0.548918   
O328     O      0.502040000000     0.780570000000     0.047480000000    -0.556254   
O329     O      0.706570000000     0.754240000000     0.472150000000    -0.551327   
O330     O      0.796150000000     0.747080000000     0.476170000000    -0.5519     
O331     O      0.747300000000     0.706420000000     0.475940000000    -0.552493   
O332     O      0.755390000000     0.796290000000     0.472640000000    -0.546692   
O333     O      0.748590000000     0.798170000000     0.025050000000    -0.57085    
O334     O      0.749850000000     0.708780000000     0.028770000000    -0.555132   
O335     O      0.794080000000     0.754340000000     0.028510000000    -0.555234   
O336     O      0.704250000000     0.754130000000     0.025040000000    -0.560968   
O337     O      0.495580000000     0.546990000000     0.727270000000    -0.55225    
O338     O      0.001180000000     0.957010000000     0.722740000000    -0.542716   
O339     O      0.954140000000     0.500060000000     0.726440000000    -0.554556   
O340     O      0.543740000000     0.005590000000     0.723360000000    -0.551729   
O341     O      0.545830000000     0.501160000000     0.776050000000    -0.557576   
O342     O      0.956050000000     0.996100000000     0.779190000000    -0.55525    
O343     O      0.504350000000     0.954490000000     0.775480000000    -0.558668   
O344     O      0.998960000000     0.544130000000     0.779960000000    -0.555177   
O345     O      0.531630000000     0.793300000000     0.751520000000    -0.54848    
O346     O      0.524400000000     0.703720000000     0.757080000000    -0.55587    
O347     O      0.529950000000     0.744950000000     0.708750000000    -0.550853   
O348     O      0.526130000000     0.750620000000     0.798400000000    -0.556578   
O349     O      0.973520000000     0.755740000000     0.795880000000    -0.551815   
O350     O      0.977430000000     0.751530000000     0.706270000000    -0.56081    
O351     O      0.971810000000     0.707950000000     0.752490000000    -0.551813   
O352     O      0.978950000000     0.797610000000     0.748160000000    -0.558115   
O353     O      0.706100000000     0.530280000000     0.747110000000    -0.552292   
O354     O      0.795730000000     0.527130000000     0.752200000000    -0.559795   
O355     O      0.754180000000     0.527240000000     0.705580000000    -0.55748    
O356     O      0.749190000000     0.530340000000     0.795210000000    -0.554123   
O357     O      0.746180000000     0.977480000000     0.797120000000    -0.549509   
O358     O      0.750080000000     0.974440000000     0.707270000000    -0.546765   
O359     O      0.793810000000     0.974280000000     0.754940000000    -0.54651    
O360     O      0.704020000000     0.977490000000     0.750780000000    -0.553635   
O361     O      0.778450000000     0.000680000000     0.545240000000    -0.552325   
O362     O      0.775350000000     0.507540000000     0.955610000000    -0.546951   
O363     O      0.775780000000     0.548160000000     0.504390000000    -0.555882   
O364     O      0.777990000000     0.958480000000     0.996490000000    -0.543219   
O365     O      0.725490000000     0.956980000000     0.502880000000    -0.554846   
O366     O      0.722980000000     0.546710000000     0.001320000000    -0.556307   
O367     O      0.722910000000     0.000790000000     0.957250000000    -0.552526   
O368     O      0.725550000000     0.501580000000     0.547070000000    -0.553556   
O369     O      0.004110000000     0.727840000000     0.546740000000    -0.550945   
O370     O      0.500090000000     0.728970000000     0.956820000000    -0.551388   
O371     O      0.546260000000     0.729980000000     0.498870000000    -0.558113   
O372     O      0.956640000000     0.726410000000     0.003020000000    -0.555883   
O373     O      0.954440000000     0.779220000000     0.506330000000    -0.54856    
O374     O      0.544340000000     0.782900000000     0.000520000000    -0.55513    
O375     O      0.995720000000     0.781770000000     0.957960000000    -0.543985   
O376     O      0.502040000000     0.780570000000     0.547480000000    -0.557141   
O377     O      0.706570000000     0.754240000000     0.972150000000    -0.553069   
O378     O      0.796150000000     0.747080000000     0.976170000000    -0.546834   
O379     O      0.747300000000     0.706420000000     0.975940000000    -0.547592   
O380     O      0.755390000000     0.796290000000     0.972640000000    -0.548186   
O381     O      0.748590000000     0.798170000000     0.525050000000    -0.565992   
O382     O      0.749850000000     0.708780000000     0.528770000000    -0.556772   
O383     O      0.794080000000     0.754340000000     0.528510000000    -0.556907   
O384     O      0.704250000000     0.754130000000     0.525040000000    -0.555953   
S1       S      0.408640000000     0.290150000000     0.058500000000    -0.0387527  
S2       S      0.159410000000     0.205470000000     0.454780000000    -0.0454895  
S3       S      0.214520000000     0.411540000000     0.053070000000    -0.0407912  
S4       S      0.302510000000     0.163550000000     0.040920000000    -0.038708   
S5       S      0.193930000000     0.465380000000     0.342080000000    -0.0414872  
S6       S      0.298180000000     0.048790000000     0.091310000000    -0.0424865  
S7       S      0.442880000000     0.292900000000     0.411670000000    -0.040149   
S8       S      0.475640000000     0.313200000000     0.097780000000    -0.0374143  
S9       S      0.159820000000     0.047340000000     0.197390000000    -0.0405972  
S10      S      0.410940000000     0.054710000000     0.219880000000    -0.0418123  
S11      S      0.045160000000     0.340910000000     0.301890000000    -0.0389851  
S12      S      0.026750000000     0.160710000000     0.314400000000    -0.0451572  
S13      S      0.408640000000     0.290150000000     0.558500000000    -0.0378316  
S14      S      0.159410000000     0.205470000000     0.954780000000    -0.0439671  
S15      S      0.214520000000     0.411540000000     0.553070000000    -0.0399197  
S16      S      0.302510000000     0.163550000000     0.540920000000    -0.0380968  
S17      S      0.193930000000     0.465380000000     0.842080000000    -0.0410176  
S18      S      0.298180000000     0.048790000000     0.591310000000    -0.0421298  
S19      S      0.442880000000     0.292900000000     0.911670000000    -0.0381949  
S20      S      0.475640000000     0.313200000000     0.597780000000    -0.0369825  
S21      S      0.159820000000     0.047340000000     0.697390000000    -0.0403131  
S22      S      0.410940000000     0.054710000000     0.719880000000    -0.041586   
S23      S      0.045160000000     0.340910000000     0.801890000000    -0.0386628  
S24      S      0.026750000000     0.160710000000     0.814400000000    -0.0446943  
S25      S      0.408640000000     0.790150000000     0.058500000000    -0.0384722  
S26      S      0.159410000000     0.705480000000     0.454780000000    -0.0453498  
S27      S      0.214520000000     0.911540000000     0.053070000000    -0.0397622  
S28      S      0.302510000000     0.663550000000     0.040920000000    -0.0386425  
S29      S      0.193930000000     0.965380000000     0.342080000000    -0.0408855  
S30      S      0.298180000000     0.548790000000     0.091310000000    -0.042029   
S31      S      0.442880000000     0.792900000000     0.411670000000    -0.0398813  
S32      S      0.475640000000     0.813190000000     0.097780000000    -0.0371078  
S33      S      0.159820000000     0.547340000000     0.197390000000    -0.0397466  
S34      S      0.410940000000     0.554710000000     0.219880000000    -0.0413755  
S35      S      0.045160000000     0.840910000000     0.301890000000    -0.0388038  
S36      S      0.026750000000     0.660710000000     0.314400000000    -0.0449213  
S37      S      0.408640000000     0.790150000000     0.558500000000    -0.0375554  
S38      S      0.159410000000     0.705480000000     0.954780000000    -0.0438308  
S39      S      0.214520000000     0.911540000000     0.553070000000    -0.0388982  
S40      S      0.302510000000     0.663550000000     0.540920000000    -0.0380317  
S41      S      0.193930000000     0.965380000000     0.842080000000    -0.0404222  
S42      S      0.298180000000     0.548790000000     0.591310000000    -0.0416733  
S43      S      0.442880000000     0.792900000000     0.911670000000    -0.0379358  
S44      S      0.475640000000     0.813190000000     0.597780000000    -0.0366787  
S45      S      0.159820000000     0.547340000000     0.697390000000    -0.0394642  
S46      S      0.410940000000     0.554710000000     0.719880000000    -0.0411495  
S47      S      0.045160000000     0.840910000000     0.801890000000    -0.038484   
S48      S      0.026750000000     0.660710000000     0.814400000000    -0.0444601  
S49      S      0.908640000000     0.290150000000     0.058500000000    -0.0390076  
S50      S      0.659410000000     0.205470000000     0.454780000000    -0.0455812  
S51      S      0.714520000000     0.411540000000     0.053070000000    -0.0409498  
S52      S      0.802510000000     0.163550000000     0.040920000000    -0.0387948  
S53      S      0.693930000000     0.465380000000     0.342080000000    -0.0415595  
S54      S      0.798180000000     0.048790000000     0.091310000000    -0.0425621  
S55      S      0.942880000000     0.292900000000     0.411670000000    -0.040473   
S56      S      0.975640000000     0.313200000000     0.097780000000    -0.0378991  
S57      S      0.659820000000     0.047340000000     0.197390000000    -0.0407807  
S58      S      0.910940000000     0.054710000000     0.219880000000    -0.041972   
S59      S      0.545160000000     0.340910000000     0.301890000000    -0.0392958  
S60      S      0.526750000000     0.160710000000     0.314400000000    -0.0460221  
S61      S      0.908640000000     0.290150000000     0.558500000000    -0.0380884  
S62      S      0.659410000000     0.205470000000     0.954780000000    -0.0440557  
S63      S      0.714520000000     0.411540000000     0.553070000000    -0.0400772  
S64      S      0.802510000000     0.163550000000     0.540920000000    -0.0381844  
S65      S      0.693930000000     0.465380000000     0.842080000000    -0.0410888  
S66      S      0.798180000000     0.048790000000     0.591310000000    -0.0422059  
S67      S      0.942880000000     0.292900000000     0.911670000000    -0.0385229  
S68      S      0.975640000000     0.313200000000     0.597780000000    -0.0374694  
S69      S      0.659820000000     0.047340000000     0.697390000000    -0.0404958  
S70      S      0.910940000000     0.054710000000     0.719880000000    -0.0417466  
S71      S      0.545160000000     0.340910000000     0.801890000000    -0.0389714  
S72      S      0.526750000000     0.160710000000     0.814400000000    -0.0455537  
S73      S      0.908640000000     0.790150000000     0.058500000000    -0.0387252  
S74      S      0.659410000000     0.705480000000     0.454780000000    -0.0454407  
S75      S      0.714520000000     0.911540000000     0.053070000000    -0.039916   
S76      S      0.802510000000     0.663550000000     0.040920000000    -0.0387288  
S77      S      0.693930000000     0.965380000000     0.342080000000    -0.040955   
S78      S      0.798180000000     0.548790000000     0.091310000000    -0.0421033  
S79      S      0.942880000000     0.792900000000     0.411670000000    -0.040203   
S80      S      0.975640000000     0.813190000000     0.097780000000    -0.0375894  
S81      S      0.659820000000     0.547340000000     0.197390000000    -0.0399266  
S82      S      0.910940000000     0.554710000000     0.219880000000    -0.041534   
S83      S      0.545160000000     0.840910000000     0.301890000000    -0.0391116  
S84      S      0.526750000000     0.660710000000     0.314400000000    -0.0457801  
S85      S      0.908640000000     0.790150000000     0.558500000000    -0.0378102  
S86      S      0.659410000000     0.705480000000     0.954780000000    -0.0439186  
S87      S      0.714520000000     0.911540000000     0.553070000000    -0.0390509  
S88      S      0.802510000000     0.663550000000     0.540920000000    -0.0381188  
S89      S      0.693930000000     0.965380000000     0.842080000000    -0.0404905  
S90      S      0.798180000000     0.548790000000     0.591310000000    -0.041748   
S91      S      0.942880000000     0.792900000000     0.911670000000    -0.0382615  
S92      S      0.975640000000     0.813190000000     0.597780000000    -0.0371623  
S93      S      0.659820000000     0.547340000000     0.697390000000    -0.0396435  
S94      S      0.910940000000     0.554710000000     0.719880000000    -0.0413089  
S95      S      0.545160000000     0.840910000000     0.801890000000    -0.0387897  
S96      S      0.526750000000     0.660710000000     0.814400000000    -0.0453134  
V1       V      0.498680000000     0.002350000000     0.222820000000     1.38157    
V2       V      0.501230000000     0.498960000000     0.279780000000     1.39885    
V3       V      0.030160000000     0.248080000000     0.253890000000     1.39668    
V4       V      0.473300000000     0.253200000000     0.250730000000     1.3991     
V5       V      0.251240000000     0.030860000000     0.250090000000     1.39768    
V6       V      0.248600000000     0.473790000000     0.252500000000     1.39326    
V7       V      0.279070000000     0.003630000000     0.000330000000     1.37171    
V8       V      0.222080000000     0.001560000000     0.502180000000     1.40235    
V9       V      0.001750000000     0.226180000000     0.001500000000     1.38891    
V10      V      0.999130000000     0.283230000000     0.502980000000     1.3875     
V11      V      0.251460000000     0.251030000000     0.472030000000     1.37912    
V12      V      0.249100000000     0.253800000000     0.028970000000     1.41243    
V13      V      0.498680000000     0.002350000000     0.722830000000     1.38161    
V14      V      0.501230000000     0.498960000000     0.779780000000     1.39906    
V15      V      0.030160000000     0.248080000000     0.753890000000     1.3967     
V16      V      0.473300000000     0.253200000000     0.750730000000     1.3991     
V17      V      0.251240000000     0.030860000000     0.750090000000     1.39773    
V18      V      0.248600000000     0.473790000000     0.752500000000     1.39328    
V19      V      0.279070000000     0.003630000000     0.500330000000     1.38519    
V20      V      0.222080000000     0.001560000000     0.002180000000     1.39763    
V21      V      0.001750000000     0.226180000000     0.501500000000     1.40261    
V22      V      0.999130000000     0.283230000000     0.002980000000     1.38257    
V23      V      0.251460000000     0.251030000000     0.972030000000     1.38568    
V24      V      0.249100000000     0.253800000000     0.528970000000     1.41876    
V25      V      0.498680000000     0.502350000000     0.222820000000     1.39113    
V26      V      0.501230000000     0.998960000000     0.279780000000     1.41283    
V27      V      0.030160000000     0.748080000000     0.253890000000     1.3966     
V28      V      0.473300000000     0.753200000000     0.250730000000     1.39947    
V29      V      0.251240000000     0.530860000000     0.250090000000     1.40276    
V30      V      0.248600000000     0.973780000000     0.252500000000     1.39543    
V31      V      0.279070000000     0.503630000000     0.000330000000     1.37543    
V32      V      0.222080000000     0.501560000000     0.502180000000     1.40643    
V33      V      0.001750000000     0.726180000000     0.001500000000     1.38892    
V34      V      0.999130000000     0.783230000000     0.502980000000     1.38782    
V35      V      0.251460000000     0.751030000000     0.472030000000     1.37912    
V36      V      0.249100000000     0.753800000000     0.028970000000     1.41246    
V37      V      0.498680000000     0.502350000000     0.722830000000     1.39113    
V38      V      0.501230000000     0.998960000000     0.779780000000     1.41296    
V39      V      0.030160000000     0.748080000000     0.753890000000     1.39662    
V40      V      0.473300000000     0.753200000000     0.750730000000     1.39946    
V41      V      0.251240000000     0.530860000000     0.750090000000     1.40279    
V42      V      0.248600000000     0.973780000000     0.752500000000     1.39544    
V43      V      0.279070000000     0.503630000000     0.500330000000     1.38895    
V44      V      0.222080000000     0.501560000000     0.002180000000     1.40173    
V45      V      0.001750000000     0.726180000000     0.501500000000     1.40259    
V46      V      0.999130000000     0.783230000000     0.002980000000     1.38291    
V47      V      0.251460000000     0.751030000000     0.972030000000     1.38567    
V48      V      0.249100000000     0.753800000000     0.528970000000     1.41877    
V49      V      0.998680000000     0.002350000000     0.222820000000     1.37383    
V50      V      0.001230000000     0.498960000000     0.279780000000     1.40695    
V51      V      0.530160000000     0.248080000000     0.253890000000     1.39465    
V52      V      0.973300000000     0.253200000000     0.250730000000     1.39707    
V53      V      0.751240000000     0.030860000000     0.250090000000     1.39766    
V54      V      0.748590000000     0.473790000000     0.252500000000     1.39328    
V55      V      0.779070000000     0.003630000000     0.000330000000     1.37169    
V56      V      0.722080000000     0.001560000000     0.502180000000     1.40218    
V57      V      0.501760000000     0.226180000000     0.001500000000     1.38319    
V58      V      0.499130000000     0.283230000000     0.502980000000     1.39508    
V59      V      0.751460000000     0.251030000000     0.472030000000     1.37911    
V60      V      0.749100000000     0.253800000000     0.028970000000     1.41242    
V61      V      0.998680000000     0.002350000000     0.722830000000     1.37388    
V62      V      0.001230000000     0.498960000000     0.779780000000     1.40714    
V63      V      0.530160000000     0.248080000000     0.753890000000     1.39467    
V64      V      0.973300000000     0.253200000000     0.750730000000     1.39706    
V65      V      0.751240000000     0.030860000000     0.750090000000     1.39771    
V66      V      0.748590000000     0.473790000000     0.752500000000     1.3933     
V67      V      0.779070000000     0.003630000000     0.500330000000     1.38516    
V68      V      0.722080000000     0.001560000000     0.002180000000     1.39745    
V69      V      0.501760000000     0.226180000000     0.501500000000     1.39694    
V70      V      0.499130000000     0.283230000000     0.002980000000     1.39012    
V71      V      0.751460000000     0.251030000000     0.972030000000     1.38568    
V72      V      0.749100000000     0.253800000000     0.528970000000     1.41875    
V73      V      0.998680000000     0.502350000000     0.222820000000     1.38336    
V74      V      0.001230000000     0.998960000000     0.279780000000     1.42083    
V75      V      0.530160000000     0.748080000000     0.253890000000     1.39458    
V76      V      0.973300000000     0.753200000000     0.250730000000     1.39744    
V77      V      0.751240000000     0.530860000000     0.250090000000     1.40276    
V78      V      0.748590000000     0.973780000000     0.252500000000     1.39546    
V79      V      0.779070000000     0.503630000000     0.000330000000     1.37542    
V80      V      0.722080000000     0.501560000000     0.502180000000     1.40627    
V81      V      0.501760000000     0.726180000000     0.001500000000     1.38323    
V82      V      0.499130000000     0.783230000000     0.502980000000     1.39536    
V83      V      0.751460000000     0.751030000000     0.472030000000     1.37911    
V84      V      0.749100000000     0.753800000000     0.028970000000     1.41245    
V85      V      0.998680000000     0.502350000000     0.722830000000     1.38337    
V86      V      0.001230000000     0.998960000000     0.779780000000     1.42095    
V87      V      0.530160000000     0.748080000000     0.753890000000     1.3946     
V88      V      0.973300000000     0.753200000000     0.750730000000     1.39744    
V89      V      0.751240000000     0.530860000000     0.750090000000     1.40279    
V90      V      0.748590000000     0.973780000000     0.752500000000     1.39546    
V91      V      0.779070000000     0.503630000000     0.500330000000     1.38893    
V92      V      0.722080000000     0.501560000000     0.002180000000     1.40155    
V93      V      0.501760000000     0.726180000000     0.501500000000     1.39695    
V94      V      0.499130000000     0.783230000000     0.002980000000     1.39042    
V95      V      0.751460000000     0.751030000000     0.972030000000     1.38566    
V96      V      0.749100000000     0.753800000000     0.528970000000     1.41877    


