data_structure

_audit_creation_method RASPA-1.0
_audit_creation_date 2023-5-19
_audit_author_name 'Poobodin Mano'

_cell_length_a    42.23
_cell_length_b    42.2032
_cell_length_c    42.2353
_cell_angle_alpha 90
_cell_angle_beta  90
_cell_angle_gamma 90
_cell_volume      75273.5

_symmetry_cell_setting          triclinic
_symmetry_space_group_name_Hall 'P 1'
_symmetry_space_group_name_H-M  'P 1'
_symmetry_Int_Tables_number     1

_symmetry_equiv_pos_as_xyz 'x,y,z'

loop_
_atom_site_label
_atom_site_type_symbol
_atom_site_fract_x
_atom_site_fract_y
_atom_site_fract_z
_atom_site_charge
Br1      Br     0.414270000000     0.286800000000     0.442570000000    -0.22741    
Br2      Br     0.164820000000     0.193700000000     0.035740000000    -0.225572   
Br3      Br     0.299070000000     0.415740000000     0.451450000000    -0.211722   
Br4      Br     0.209110000000     0.092450000000     0.943740000000    -0.213175   
Br5      Br     0.215790000000     0.442220000000     0.415360000000    -0.204795   
Br6      Br     0.199750000000     0.461330000000     0.163370000000    -0.239691   
Br7      Br     0.060040000000     0.289580000000     0.415280000000    -0.225121   
Br8      Br     0.545230000000     0.199370000000     0.164820000000    -0.226778   
Br9      Br     0.164490000000     0.049910000000     0.307180000000    -0.212066   
Br10     Br     0.413310000000     0.058120000000     0.298060000000    -0.228956   
Br11     Br     0.063330000000     0.415700000000     0.293490000000    -0.220755   
Br12     Br     0.039510000000     0.166030000000     0.311090000000    -0.219689   
Br13     Br     0.414270000000     0.286800000000     0.942570000000    -0.224417   
Br14     Br     0.164820000000     0.193700000000     0.535740000000    -0.222988   
Br15     Br     0.299070000000     0.415740000000     0.951450000000    -0.208414   
Br16     Br     0.209110000000     0.092450000000     0.443740000000    -0.215681   
Br17     Br     0.215790000000     0.442220000000     0.915360000000    -0.202193   
Br18     Br     0.199750000000     0.461330000000     0.663370000000    -0.239317   
Br19     Br     0.060040000000     0.289580000000     0.915280000000    -0.222492   
Br20     Br     0.545230000000     0.199370000000     0.664820000000    -0.226495   
Br21     Br     0.164490000000     0.049910000000     0.807180000000    -0.211568   
Br22     Br     0.413310000000     0.058120000000     0.798060000000    -0.22822    
Br23     Br     0.063330000000     0.415700000000     0.793490000000    -0.220211   
Br24     Br     0.039510000000     0.166030000000     0.811090000000    -0.218972   
Br25     Br     0.414270000000     0.786800000000     0.442570000000    -0.226707   
Br26     Br     0.164820000000     0.693700000000     0.035740000000    -0.225145   
Br27     Br     0.299070000000     0.915740000000     0.451450000000    -0.208196   
Br28     Br     0.209110000000     0.592450000000     0.943740000000    -0.211411   
Br29     Br     0.215790000000     0.942220000000     0.415360000000    -0.201259   
Br30     Br     0.199750000000     0.961330000000     0.163370000000    -0.236696   
Br31     Br     0.060040000000     0.789580000000     0.415280000000    -0.224511   
Br32     Br     0.545230000000     0.699370000000     0.164820000000    -0.226363   
Br33     Br     0.164490000000     0.549910000000     0.307180000000    -0.209948   
Br34     Br     0.413310000000     0.558120000000     0.298060000000    -0.227791   
Br35     Br     0.063330000000     0.915700000000     0.293490000000    -0.217082   
Br36     Br     0.039510000000     0.666030000000     0.311090000000    -0.219402   
Br37     Br     0.414270000000     0.786800000000     0.942570000000    -0.223723   
Br38     Br     0.164820000000     0.693700000000     0.535740000000    -0.222558   
Br39     Br     0.299070000000     0.915740000000     0.951450000000    -0.204913   
Br40     Br     0.209110000000     0.592450000000     0.443740000000    -0.213912   
Br41     Br     0.215790000000     0.942220000000     0.915360000000    -0.19868    
Br42     Br     0.199750000000     0.961330000000     0.663370000000    -0.236324   
Br43     Br     0.060040000000     0.789580000000     0.915280000000    -0.221889   
Br44     Br     0.545230000000     0.699370000000     0.664820000000    -0.226079   
Br45     Br     0.164490000000     0.549910000000     0.807180000000    -0.209454   
Br46     Br     0.413310000000     0.558120000000     0.798060000000    -0.227056   
Br47     Br     0.063330000000     0.915700000000     0.793490000000    -0.216548   
Br48     Br     0.039510000000     0.666030000000     0.811090000000    -0.218686   
Br49     Br     0.914270000000     0.286800000000     0.442570000000    -0.222802   
Br50     Br     0.664820000000     0.193700000000     0.035740000000    -0.225026   
Br51     Br     0.799070000000     0.415740000000     0.451450000000    -0.21059    
Br52     Br     0.709110000000     0.092450000000     0.943740000000    -0.212647   
Br53     Br     0.715790000000     0.442220000000     0.415360000000    -0.204401   
Br54     Br     0.699750000000     0.461330000000     0.163370000000    -0.239157   
Br55     Br     0.560040000000     0.289580000000     0.415280000000    -0.223794   
Br56     Br     0.045230000000     0.199370000000     0.164820000000    -0.230337   
Br57     Br     0.664490000000     0.049910000000     0.307180000000    -0.211687   
Br58     Br     0.913310000000     0.058120000000     0.298060000000    -0.223999   
Br59     Br     0.563330000000     0.415700000000     0.293490000000    -0.219443   
Br60     Br     0.539510000000     0.166030000000     0.311090000000    -0.216257   
Br61     Br     0.914270000000     0.286800000000     0.942570000000    -0.21984    
Br62     Br     0.664820000000     0.193700000000     0.535740000000    -0.22244    
Br63     Br     0.799070000000     0.415740000000     0.951450000000    -0.207297   
Br64     Br     0.709110000000     0.092450000000     0.443740000000    -0.215148   
Br65     Br     0.715790000000     0.442220000000     0.915360000000    -0.201805   
Br66     Br     0.699750000000     0.461330000000     0.663370000000    -0.238783   
Br67     Br     0.560040000000     0.289580000000     0.915280000000    -0.221168   
Br68     Br     0.045230000000     0.199370000000     0.664820000000    -0.230054   
Br69     Br     0.664490000000     0.049910000000     0.807180000000    -0.21119    
Br70     Br     0.913310000000     0.058120000000     0.798060000000    -0.223277   
Br71     Br     0.563330000000     0.415700000000     0.793490000000    -0.218902   
Br72     Br     0.539510000000     0.166030000000     0.811090000000    -0.215548   
Br73     Br     0.914270000000     0.786800000000     0.442570000000    -0.222114   
Br74     Br     0.664820000000     0.693700000000     0.035740000000    -0.224598   
Br75     Br     0.799070000000     0.915740000000     0.451450000000    -0.20708    
Br76     Br     0.709110000000     0.592450000000     0.943740000000    -0.210885   
Br77     Br     0.715790000000     0.942220000000     0.415360000000    -0.200873   
Br78     Br     0.699750000000     0.961330000000     0.163370000000    -0.23617    
Br79     Br     0.560040000000     0.789580000000     0.415280000000    -0.223187   
Br80     Br     0.045230000000     0.699370000000     0.164820000000    -0.229921   
Br81     Br     0.664490000000     0.549910000000     0.307180000000    -0.209569   
Br82     Br     0.913310000000     0.558120000000     0.298060000000    -0.222835   
Br83     Br     0.563330000000     0.915700000000     0.293490000000    -0.215776   
Br84     Br     0.539510000000     0.666030000000     0.311090000000    -0.21597    
Br85     Br     0.914270000000     0.786800000000     0.942570000000    -0.21916    
Br86     Br     0.664820000000     0.693700000000     0.535740000000    -0.22201    
Br87     Br     0.799070000000     0.915740000000     0.951450000000    -0.203812   
Br88     Br     0.709110000000     0.592450000000     0.443740000000    -0.21338    
Br89     Br     0.715790000000     0.942220000000     0.915360000000    -0.198299   
Br90     Br     0.699750000000     0.961330000000     0.663370000000    -0.235797   
Br91     Br     0.560040000000     0.789580000000     0.915280000000    -0.220568   
Br92     Br     0.045230000000     0.699370000000     0.664820000000    -0.229638   
Br93     Br     0.664490000000     0.549910000000     0.807180000000    -0.209076   
Br94     Br     0.913310000000     0.558120000000     0.798060000000    -0.222114   
Br95     Br     0.563330000000     0.915700000000     0.793490000000    -0.215244   
Br96     Br     0.539510000000     0.666030000000     0.811090000000    -0.215262   
C1       C      0.501300000000     0.063730000000     0.253930000000     0.48381    
C2       C      0.504020000000     0.443950000000     0.258260000000     0.496715   
C3       C      0.442540000000     0.502180000000     0.258180000000     0.494643   
C4       C      0.062270000000     0.505660000000     0.254070000000     0.483719   
C5       C      0.003700000000     0.194050000000     0.251890000000     0.484134   
C6       C      0.003740000000     0.313840000000     0.255910000000     0.463562   
C7       C      0.505360000000     0.255720000000     0.193640000000     0.492783   
C8       C      0.502330000000     0.251960000000     0.313360000000     0.485666   
C9       C      0.312430000000     0.001790000000     0.254710000000     0.466768   
C10      C      0.192550000000     0.006110000000     0.253120000000     0.48399    
C11      C      0.252460000000     0.505880000000     0.193340000000     0.492007   
C12      C      0.252200000000     0.501730000000     0.313240000000     0.484428   
C13      C      0.253010000000     0.007540000000     0.063090000000     0.475372   
C14      C      0.253690000000     0.000640000000     0.443500000000     0.480421   
C15      C      0.250070000000     0.064090000000     0.499880000000     0.492945   
C16      C      0.256850000000     0.444590000000     0.506210000000     0.496857   
C17      C      0.003000000000     0.255460000000     0.063380000000     0.457907   
C18      C      0.002150000000     0.251960000000     0.443630000000     0.481157   
C19      C      0.062050000000     0.254180000000     0.503290000000     0.481911   
C20      C      0.442240000000     0.253270000000     0.503120000000     0.494059   
C21      C      0.250130000000     0.194460000000     0.501330000000     0.484559   
C22      C      0.254590000000     0.314300000000     0.505930000000     0.478148   
C23      C      0.192280000000     0.255450000000     0.004160000000     0.484986   
C24      C      0.312040000000     0.252700000000     0.002940000000     0.468158   
C25      C      0.360900000000     0.238840000000     0.026880000000     0.0306348  
C26      C      0.360500000000     0.265950000000     0.477950000000     0.00142057 
C27      C      0.393920000000     0.237820000000     0.026000000000     0.0397657  
C28      C      0.393600000000     0.267430000000     0.478360000000     0.156869   
C29      C      0.110770000000     0.279480000000     0.991220000000     0.0448813  
C30      C      0.110760000000     0.229420000000     0.016230000000     0.00301505 
C31      C      0.143800000000     0.278940000000     0.990230000000     0.0526861  
C32      C      0.143850000000     0.230080000000     0.017790000000     0.157623   
C33      C      0.241390000000     0.363290000000     0.030150000000     0.031664   
C34      C      0.273460000000     0.362550000000     0.484360000000     0.00403933 
C35      C      0.241080000000     0.396360000000     0.029240000000     0.0438509  
C36      C      0.275510000000     0.395640000000     0.484990000000     0.161733   
C37      C      0.264970000000     0.145250000000     0.023350000000     0.0378306  
C38      C      0.233400000000     0.146230000000     0.977210000000     0.0164066  
C39      C      0.265620000000     0.112340000000     0.022240000000     0.0350264  
C40      C      0.231800000000     0.112970000000     0.977550000000     0.15824    
C41      C      0.268580000000     0.023660000000     0.362130000000     0.0425099  
C42      C      0.238100000000     0.476760000000     0.361630000000     0.00847231 
C43      C      0.270200000000     0.022290000000     0.395050000000     0.0398298  
C44      C      0.237330000000     0.476830000000     0.394800000000     0.166642   
C45      C      0.274080000000     0.025210000000     0.112140000000     0.0316511  
C46      C      0.230490000000     0.490220000000     0.111080000000     0.00102061 
C47      C      0.272530000000     0.026010000000     0.145230000000     0.0383343  
C48      C      0.230990000000     0.488340000000     0.144070000000     0.158147   
C49      C      0.978980000000     0.235990000000     0.362160000000     0.0507563  
C50      C      0.025520000000     0.267020000000     0.361930000000     0.00521216 
C51      C      0.980290000000     0.234530000000     0.395260000000     0.0603699  
C52      C      0.025430000000     0.267810000000     0.394940000000     0.161921   
C53      C      0.489360000000     0.279430000000     0.112410000000     0.0309629  
C54      C      0.520810000000     0.233170000000     0.111650000000     0.000372162
C55      C      0.488980000000     0.278460000000     0.145470000000     0.0413113  
C56      C      0.522690000000     0.233630000000     0.144700000000     0.156502   
C57      C      0.110900000000     0.489960000000     0.231000000000     0.0423417  
C58      C      0.110790000000     0.024220000000     0.275180000000     0.00701323 
C59      C      0.143890000000     0.488840000000     0.232140000000     0.0437898  
C60      C      0.143900000000     0.025540000000     0.274510000000     0.157642   
C61      C      0.361610000000     0.477500000000     0.242290000000     0.0317471  
C62      C      0.360390000000     0.024160000000     0.273150000000    -0.000703443
C63      C      0.394670000000     0.478610000000     0.242220000000     0.0421392  
C64      C      0.393420000000     0.023800000000     0.275440000000     0.156025   
C65      C      0.479160000000     0.362930000000     0.244570000000     0.0326317  
C66      C      0.028220000000     0.362020000000     0.271470000000     0.000670616
C67      C      0.480030000000     0.395920000000     0.244220000000     0.0430965  
C68      C      0.027790000000     0.395130000000     0.273620000000     0.156753   
C69      C      0.488020000000     0.112460000000     0.228930000000     0.0384212  
C70      C      0.017030000000     0.112400000000     0.276740000000     0.00389402 
C71      C      0.487530000000     0.145580000000     0.229430000000     0.0485455  
C72      C      0.018840000000     0.145420000000     0.275950000000     0.158657   
C73      C      0.501300000000     0.063730000000     0.753930000000     0.48378    
C74      C      0.504020000000     0.443950000000     0.758260000000     0.496687   
C75      C      0.442540000000     0.502180000000     0.758180000000     0.494617   
C76      C      0.062270000000     0.505660000000     0.754070000000     0.483687   
C77      C      0.003700000000     0.194050000000     0.751890000000     0.484156   
C78      C      0.003740000000     0.313840000000     0.755910000000     0.463615   
C79      C      0.505360000000     0.255720000000     0.693640000000     0.492796   
C80      C      0.502330000000     0.251960000000     0.813360000000     0.485678   
C81      C      0.312430000000     0.001790000000     0.754710000000     0.466786   
C82      C      0.192550000000     0.006110000000     0.753120000000     0.484002   
C83      C      0.252460000000     0.505880000000     0.693340000000     0.492012   
C84      C      0.252200000000     0.501730000000     0.813240000000     0.484468   
C85      C      0.253010000000     0.007540000000     0.563090000000     0.476571   
C86      C      0.253690000000     0.000640000000     0.943500000000     0.478512   
C87      C      0.250070000000     0.064090000000     0.999880000000     0.501604   
C88      C      0.256850000000     0.444590000000     0.006210000000     0.494957   
C89      C      0.003000000000     0.255460000000     0.563380000000     0.458625   
C90      C      0.002150000000     0.251960000000     0.943630000000     0.47987    
C91      C      0.062050000000     0.254180000000     0.003290000000     0.480405   
C92      C      0.442240000000     0.253270000000     0.003120000000     0.492463   
C93      C      0.250130000000     0.194460000000     0.001330000000     0.474651   
C94      C      0.254590000000     0.314300000000     0.005920000000     0.467813   
C95      C      0.192280000000     0.255450000000     0.504160000000     0.495287   
C96      C      0.312040000000     0.252700000000     0.502940000000     0.478394   
C97      C      0.360900000000     0.238840000000     0.526880000000     0.0321429  
C98      C      0.360500000000     0.265950000000     0.977950000000     0.00758406 
C99      C      0.393920000000     0.237820000000     0.526000000000     0.0408314  
C100     C      0.393600000000     0.267430000000     0.978360000000     0.162849   
C101     C      0.110770000000     0.279480000000     0.491220000000     0.0378497  
C102     C      0.110760000000     0.229420000000     0.516230000000     0.00433917 
C103     C      0.143800000000     0.278940000000     0.490230000000     0.046627   
C104     C      0.143850000000     0.230080000000     0.517790000000     0.158975   
C105     C      0.241390000000     0.363290000000     0.530150000000     0.0332627  
C106     C      0.273460000000     0.362550000000     0.984360000000     0.0101729  
C107     C      0.241080000000     0.396360000000     0.529240000000     0.0450559  
C108     C      0.275510000000     0.395640000000     0.985000000000     0.167705   
C109     C      0.264970000000     0.145250000000     0.523350000000     0.0367459  
C110     C      0.233400000000     0.146230000000     0.477210000000     0.00788115 
C111     C      0.265620000000     0.112340000000     0.522240000000     0.0433823  
C112     C      0.231800000000     0.112970000000     0.477550000000     0.158745   
C113     C      0.268580000000     0.023660000000     0.862130000000     0.0427229  
C114     C      0.238100000000     0.476760000000     0.861630000000     0.00867229 
C115     C      0.270200000000     0.022290000000     0.895050000000     0.0399252  
C116     C      0.237330000000     0.476830000000     0.894800000000     0.166558   
C117     C      0.274080000000     0.025210000000     0.612140000000     0.0319029  
C118     C      0.230490000000     0.490220000000     0.611080000000     0.00126292 
C119     C      0.272530000000     0.026010000000     0.645230000000     0.0383925  
C120     C      0.230990000000     0.488340000000     0.644070000000     0.158182   
C121     C      0.978980000000     0.235990000000     0.862160000000     0.0509496  
C122     C      0.025520000000     0.267020000000     0.861940000000     0.0053418  
C123     C      0.980290000000     0.234530000000     0.895260000000     0.060553   
C124     C      0.025430000000     0.267810000000     0.894940000000     0.1621     
C125     C      0.489360000000     0.279430000000     0.612410000000     0.0311236  
C126     C      0.520810000000     0.233170000000     0.611640000000     0.000570297
C127     C      0.488980000000     0.278460000000     0.645470000000     0.0413781  
C128     C      0.522690000000     0.233630000000     0.644700000000     0.156512   
C129     C      0.110900000000     0.489960000000     0.731000000000     0.0423763  
C130     C      0.110790000000     0.024220000000     0.775190000000     0.007      
C131     C      0.143890000000     0.488840000000     0.732140000000     0.043846   
C132     C      0.143900000000     0.025540000000     0.774510000000     0.157699   
C133     C      0.361610000000     0.477500000000     0.742290000000     0.0318011  
C134     C      0.360390000000     0.024160000000     0.773150000000    -0.00060832 
C135     C      0.394670000000     0.478610000000     0.742220000000     0.0422107  
C136     C      0.393420000000     0.023800000000     0.775430000000     0.156077   
C137     C      0.479160000000     0.362930000000     0.744570000000     0.0326966  
C138     C      0.028220000000     0.362020000000     0.771470000000     0.000749129
C139     C      0.480030000000     0.395920000000     0.744220000000     0.0431743  
C140     C      0.027790000000     0.395130000000     0.773620000000     0.156812   
C141     C      0.488020000000     0.112460000000     0.728930000000     0.0384558  
C142     C      0.017030000000     0.112400000000     0.776740000000     0.00397134 
C143     C      0.487530000000     0.145580000000     0.729430000000     0.0485843  
C144     C      0.018840000000     0.145420000000     0.775950000000     0.158666   
C145     C      0.501300000000     0.563730000000     0.253930000000     0.484656   
C146     C      0.504020000000     0.943950000000     0.258260000000     0.495097   
C147     C      0.442540000000     0.002180000000     0.258180000000     0.492936   
C148     C      0.062270000000     0.005660000000     0.254070000000     0.481917   
C149     C      0.003700000000     0.694050000000     0.251890000000     0.484138   
C150     C      0.003740000000     0.813840000000     0.255910000000     0.463683   
C151     C      0.505360000000     0.755720000000     0.193640000000     0.492793   
C152     C      0.502330000000     0.751960000000     0.313360000000     0.485686   
C153     C      0.312430000000     0.501790000000     0.254710000000     0.478816   
C154     C      0.192550000000     0.506110000000     0.253120000000     0.496257   
C155     C      0.252460000000     0.005880000000     0.193340000000     0.479632   
C156     C      0.252200000000     0.001730000000     0.313240000000     0.472695   
C157     C      0.253010000000     0.507540000000     0.063090000000     0.477614   
C158     C      0.253690000000     0.500640000000     0.443500000000     0.503291   
C159     C      0.250070000000     0.564090000000     0.499880000000     0.49423    
C160     C      0.256850000000     0.944590000000     0.506210000000     0.494637   
C161     C      0.003000000000     0.755460000000     0.063380000000     0.457937   
C162     C      0.002150000000     0.751960000000     0.443630000000     0.481137   
C163     C      0.062050000000     0.754180000000     0.503290000000     0.481881   
C164     C      0.442240000000     0.753270000000     0.503120000000     0.494029   
C165     C      0.250130000000     0.694450000000     0.501330000000     0.48448    
C166     C      0.254590000000     0.814300000000     0.505930000000     0.478221   
C167     C      0.192280000000     0.755450000000     0.004160000000     0.485      
C168     C      0.312040000000     0.752700000000     0.002940000000     0.468199   
C169     C      0.360900000000     0.738840000000     0.026880000000     0.0307222  
C170     C      0.360500000000     0.765950000000     0.477950000000     0.0015152  
C171     C      0.393920000000     0.737820000000     0.026000000000     0.0398571  
C172     C      0.393600000000     0.767430000000     0.478360000000     0.156937   
C173     C      0.110770000000     0.779480000000     0.991220000000     0.0449391  
C174     C      0.110760000000     0.729420000000     0.016230000000     0.00306525 
C175     C      0.143800000000     0.778940000000     0.990230000000     0.0527505  
C176     C      0.143850000000     0.730080000000     0.017790000000     0.157637   
C177     C      0.241390000000     0.863290000000     0.030150000000     0.0319762  
C178     C      0.273460000000     0.862550000000     0.484360000000     0.00433208 
C179     C      0.241080000000     0.896360000000     0.029240000000     0.0440996  
C180     C      0.275510000000     0.895640000000     0.484990000000     0.161695   
C181     C      0.264970000000     0.645250000000     0.023350000000     0.0379048  
C182     C      0.233400000000     0.646230000000     0.977210000000     0.0164544  
C183     C      0.265620000000     0.612340000000     0.022240000000     0.0352116  
C184     C      0.231800000000     0.612980000000     0.977550000000     0.158251   
C185     C      0.268580000000     0.523660000000     0.362130000000     0.040633   
C186     C      0.238100000000     0.976760000000     0.361630000000     0.0189701  
C187     C      0.270200000000     0.522290000000     0.395050000000     0.0510649  
C188     C      0.237330000000     0.976830000000     0.394800000000     0.165089   
C189     C      0.274080000000     0.525210000000     0.112140000000     0.0329834  
C190     C      0.230490000000     0.990220000000     0.111080000000     0.00956944 
C191     C      0.272530000000     0.526010000000     0.145230000000     0.0403495  
C192     C      0.230990000000     0.988340000000     0.144070000000     0.164212   
C193     C      0.978980000000     0.735990000000     0.362160000000     0.0507865  
C194     C      0.025520000000     0.767010000000     0.361930000000     0.00533265 
C195     C      0.980290000000     0.734530000000     0.395260000000     0.0604165  
C196     C      0.025430000000     0.767810000000     0.394940000000     0.161966   
C197     C      0.489360000000     0.779430000000     0.112410000000     0.0311234  
C198     C      0.520810000000     0.733170000000     0.111650000000     0.000449738
C199     C      0.488980000000     0.778470000000     0.145470000000     0.0413292  
C200     C      0.522690000000     0.733630000000     0.144700000000     0.156525   
C201     C      0.110900000000     0.989960000000     0.231000000000     0.050514   
C202     C      0.110790000000     0.524220000000     0.275180000000     0.00855711 
C203     C      0.143890000000     0.988840000000     0.232140000000     0.0509059  
C204     C      0.143900000000     0.525550000000     0.274510000000     0.159222   
C205     C      0.361610000000     0.977500000000     0.242290000000     0.0388361  
C206     C      0.360390000000     0.524160000000     0.273150000000     0.00118536 
C207     C      0.394670000000     0.978610000000     0.242220000000     0.0504529  
C208     C      0.393420000000     0.523800000000     0.275440000000     0.157008   
C209     C      0.479160000000     0.862930000000     0.244570000000     0.0329604  
C210     C      0.028220000000     0.862010000000     0.271470000000     0.00104611 
C211     C      0.480030000000     0.895920000000     0.244220000000     0.0434659  
C212     C      0.027790000000     0.895130000000     0.273620000000     0.156822   
C213     C      0.488020000000     0.612460000000     0.228930000000     0.0385719  
C214     C      0.017030000000     0.612400000000     0.276740000000     0.00401811 
C215     C      0.487530000000     0.645580000000     0.229430000000     0.048601   
C216     C      0.018840000000     0.645420000000     0.275950000000     0.158686   
C217     C      0.501300000000     0.563730000000     0.753930000000     0.484626   
C218     C      0.504020000000     0.943950000000     0.758260000000     0.49507    
C219     C      0.442540000000     0.002180000000     0.758180000000     0.492911   
C220     C      0.062270000000     0.005660000000     0.754070000000     0.481886   
C221     C      0.003700000000     0.694050000000     0.751890000000     0.48416    
C222     C      0.003740000000     0.813840000000     0.755910000000     0.463736   
C223     C      0.505360000000     0.755720000000     0.693640000000     0.492806   
C224     C      0.502330000000     0.751960000000     0.813360000000     0.485698   
C225     C      0.312430000000     0.501790000000     0.754710000000     0.478823   
C226     C      0.192550000000     0.506110000000     0.753120000000     0.496257   
C227     C      0.252460000000     0.005880000000     0.693340000000     0.479641   
C228     C      0.252200000000     0.001730000000     0.813240000000     0.472752   
C229     C      0.253010000000     0.507540000000     0.563090000000     0.478822   
C230     C      0.253690000000     0.500640000000     0.943500000000     0.50129    
C231     C      0.250070000000     0.564090000000     0.999880000000     0.502891   
C232     C      0.256850000000     0.944590000000     0.006210000000     0.492748   
C233     C      0.003000000000     0.755460000000     0.563380000000     0.458654   
C234     C      0.002150000000     0.751960000000     0.943630000000     0.479852   
C235     C      0.062050000000     0.754180000000     0.003290000000     0.480376   
C236     C      0.442240000000     0.753270000000     0.003120000000     0.492434   
C237     C      0.250130000000     0.694450000000     0.001330000000     0.474581   
C238     C      0.254590000000     0.814300000000     0.005920000000     0.467904   
C239     C      0.192280000000     0.755450000000     0.504160000000     0.495289   
C240     C      0.312040000000     0.752700000000     0.502940000000     0.478425   
C241     C      0.360900000000     0.738840000000     0.526880000000     0.0322294  
C242     C      0.360500000000     0.765950000000     0.977950000000     0.0076686  
C243     C      0.393920000000     0.737820000000     0.526000000000     0.0409227  
C244     C      0.393600000000     0.767430000000     0.978360000000     0.162907   
C245     C      0.110770000000     0.779480000000     0.491220000000     0.0379198  
C246     C      0.110760000000     0.729420000000     0.516230000000     0.00438904 
C247     C      0.143800000000     0.778940000000     0.490230000000     0.0467021  
C248     C      0.143850000000     0.730080000000     0.517790000000     0.158989   
C249     C      0.241390000000     0.863290000000     0.530150000000     0.0335714  
C250     C      0.273460000000     0.862550000000     0.984360000000     0.0104478  
C251     C      0.241080000000     0.896360000000     0.529240000000     0.045302   
C252     C      0.275510000000     0.895640000000     0.985000000000     0.167642   
C253     C      0.264970000000     0.645250000000     0.523350000000     0.0368201  
C254     C      0.233400000000     0.646230000000     0.477210000000     0.00793113 
C255     C      0.265620000000     0.612340000000     0.522240000000     0.0435729  
C256     C      0.231800000000     0.612980000000     0.477550000000     0.158757   
C257     C      0.268580000000     0.523660000000     0.862130000000     0.0408551  
C258     C      0.238100000000     0.976760000000     0.861630000000     0.0191407  
C259     C      0.270200000000     0.522290000000     0.895050000000     0.051122   
C260     C      0.237330000000     0.976830000000     0.894800000000     0.165009   
C261     C      0.274080000000     0.525210000000     0.612140000000     0.033237   
C262     C      0.230490000000     0.990220000000     0.611080000000     0.00981745 
C263     C      0.272530000000     0.526010000000     0.645230000000     0.0404089  
C264     C      0.230990000000     0.988340000000     0.644070000000     0.164244   
C265     C      0.978980000000     0.735990000000     0.862160000000     0.0509794  
C266     C      0.025520000000     0.767010000000     0.861940000000     0.00546168 
C267     C      0.980290000000     0.734530000000     0.895260000000     0.0605993  
C268     C      0.025430000000     0.767810000000     0.894940000000     0.162145   
C269     C      0.489360000000     0.779430000000     0.612410000000     0.0312839  
C270     C      0.520810000000     0.733170000000     0.611640000000     0.00064785 
C271     C      0.488980000000     0.778470000000     0.645470000000     0.041396   
C272     C      0.522690000000     0.733630000000     0.644700000000     0.156535   
C273     C      0.110900000000     0.989960000000     0.731000000000     0.0505379  
C274     C      0.110790000000     0.524220000000     0.775190000000     0.00854331 
C275     C      0.143890000000     0.988840000000     0.732140000000     0.0509524  
C276     C      0.143900000000     0.525550000000     0.774510000000     0.159277   
C277     C      0.361610000000     0.977500000000     0.742290000000     0.0388806  
C278     C      0.360390000000     0.524160000000     0.773150000000     0.00127872 
C279     C      0.394670000000     0.978610000000     0.742220000000     0.0505131  
C280     C      0.393420000000     0.523800000000     0.775430000000     0.15706    
C281     C      0.479160000000     0.862930000000     0.744570000000     0.0330248  
C282     C      0.028220000000     0.862010000000     0.771470000000     0.00112385 
C283     C      0.480030000000     0.895920000000     0.744220000000     0.0435429  
C284     C      0.027790000000     0.895130000000     0.773620000000     0.15688    
C285     C      0.488020000000     0.612460000000     0.728930000000     0.0386066  
C286     C      0.017030000000     0.612400000000     0.776740000000     0.00409533 
C287     C      0.487530000000     0.645580000000     0.729430000000     0.04864    
C288     C      0.018840000000     0.645420000000     0.775950000000     0.158695   
C289     C      0.001300000000     0.063730000000     0.253930000000     0.465651   
C290     C      0.004020000000     0.443950000000     0.258260000000     0.493921   
C291     C      0.942540000000     0.502180000000     0.258180000000     0.491911   
C292     C      0.562270000000     0.505660000000     0.254070000000     0.485489   
C293     C      0.503700000000     0.194050000000     0.251890000000     0.499733   
C294     C      0.503740000000     0.313840000000     0.255910000000     0.479537   
C295     C      0.005360000000     0.255720000000     0.193640000000     0.47699    
C296     C      0.002330000000     0.251960000000     0.313360000000     0.470274   
C297     C      0.812430000000     0.001790000000     0.254710000000     0.466902   
C298     C      0.692550000000     0.006110000000     0.253120000000     0.484004   
C299     C      0.752460000000     0.505880000000     0.193340000000     0.492036   
C300     C      0.752210000000     0.501730000000     0.313240000000     0.484445   
C301     C      0.753010000000     0.007540000000     0.063090000000     0.475354   
C302     C      0.753690000000     0.000640000000     0.443500000000     0.480409   
C303     C      0.750070000000     0.064090000000     0.499880000000     0.492911   
C304     C      0.756850000000     0.444590000000     0.506210000000     0.496812   
C305     C      0.503000000000     0.255460000000     0.063380000000     0.476629   
C306     C      0.502150000000     0.251960000000     0.443630000000     0.500034   
C307     C      0.562050000000     0.254180000000     0.503290000000     0.484307   
C308     C      0.942240000000     0.253270000000     0.503120000000     0.490471   
C309     C      0.750130000000     0.194460000000     0.501330000000     0.484585   
C310     C      0.754590000000     0.314300000000     0.505930000000     0.478212   
C311     C      0.692290000000     0.255450000000     0.004160000000     0.485061   
C312     C      0.812030000000     0.252700000000     0.002940000000     0.468486   
C313     C      0.860910000000     0.238840000000     0.026880000000     0.0310558  
C314     C      0.860500000000     0.265950000000     0.477950000000     0.00183102 
C315     C      0.893920000000     0.237820000000     0.026000000000     0.0399801  
C316     C      0.893600000000     0.267430000000     0.478360000000     0.156797   
C317     C      0.610770000000     0.279480000000     0.991220000000     0.0452554  
C318     C      0.610760000000     0.229420000000     0.016230000000     0.00338522 
C319     C      0.643800000000     0.278940000000     0.990230000000     0.0527008  
C320     C      0.643850000000     0.230080000000     0.017790000000     0.15764    
C321     C      0.741390000000     0.363290000000     0.030150000000     0.0317771  
C322     C      0.773460000000     0.362550000000     0.484360000000     0.00416913 
C323     C      0.741080000000     0.396360000000     0.029240000000     0.0439664  
C324     C      0.775510000000     0.395640000000     0.484990000000     0.161795   
C325     C      0.764970000000     0.145250000000     0.023350000000     0.0379465  
C326     C      0.733400000000     0.146230000000     0.977210000000     0.0164765  
C327     C      0.765620000000     0.112340000000     0.022240000000     0.0351811  
C328     C      0.731800000000     0.112970000000     0.977550000000     0.158312   
C329     C      0.768580000000     0.023660000000     0.362130000000     0.0426038  
C330     C      0.738100000000     0.476760000000     0.361630000000     0.00856868 
C331     C      0.770200000000     0.022290000000     0.395050000000     0.0399906  
C332     C      0.737330000000     0.476830000000     0.394800000000     0.166686   
C333     C      0.774080000000     0.025210000000     0.112140000000     0.0317972  
C334     C      0.730490000000     0.490220000000     0.111080000000     0.00112736 
C335     C      0.772530000000     0.026010000000     0.145230000000     0.038468   
C336     C      0.730990000000     0.488340000000     0.144070000000     0.158207   
C337     C      0.478980000000     0.235990000000     0.362160000000     0.0411479  
C338     C      0.525520000000     0.267020000000     0.361930000000     0.00734804 
C339     C      0.480290000000     0.234530000000     0.395260000000     0.0511325  
C340     C      0.525430000000     0.267810000000     0.394940000000     0.163778   
C341     C      0.989360000000     0.279430000000     0.112410000000     0.0402107  
C342     C      0.020810000000     0.233170000000     0.111650000000    -0.00227543 
C343     C      0.988980000000     0.278460000000     0.145470000000     0.0509359  
C344     C      0.022690000000     0.233630000000     0.144700000000     0.154665   
C345     C      0.610900000000     0.489960000000     0.231000000000     0.0426563  
C346     C      0.610780000000     0.024220000000     0.275180000000     0.00737237 
C347     C      0.643890000000     0.488840000000     0.232140000000     0.0438592  
C348     C      0.643910000000     0.025540000000     0.274510000000     0.157693   
C349     C      0.861610000000     0.477500000000     0.242290000000     0.0321762  
C350     C      0.860390000000     0.024160000000     0.273150000000    -0.000270002
C351     C      0.894670000000     0.478610000000     0.242220000000     0.0425009  
C352     C      0.893420000000     0.023800000000     0.275440000000     0.156046   
C353     C      0.979160000000     0.362930000000     0.244570000000     0.0416051  
C354     C      0.528220000000     0.362020000000     0.271470000000     0.0030837  
C355     C      0.980030000000     0.395920000000     0.244220000000     0.0536404  
C356     C      0.527790000000     0.395130000000     0.273620000000     0.158023   
C357     C      0.988020000000     0.112460000000     0.228930000000     0.0477116  
C358     C      0.517030000000     0.112400000000     0.276740000000     0.00651792 
C359     C      0.987530000000     0.145580000000     0.229430000000     0.0582832  
C360     C      0.518840000000     0.145420000000     0.275950000000     0.160503   
C361     C      0.001300000000     0.063730000000     0.753930000000     0.46564    
C362     C      0.004020000000     0.443950000000     0.758260000000     0.493895   
C363     C      0.942540000000     0.502180000000     0.758180000000     0.491888   
C364     C      0.562270000000     0.505660000000     0.754070000000     0.485455   
C365     C      0.503700000000     0.194050000000     0.751890000000     0.499737   
C366     C      0.503740000000     0.313840000000     0.755910000000     0.479572   
C367     C      0.005360000000     0.255720000000     0.693640000000     0.477012   
C368     C      0.002330000000     0.251960000000     0.813360000000     0.470315   
C369     C      0.812430000000     0.001790000000     0.754710000000     0.466919   
C370     C      0.692550000000     0.006110000000     0.753120000000     0.484016   
C371     C      0.752460000000     0.505880000000     0.693340000000     0.49204    
C372     C      0.752210000000     0.501730000000     0.813240000000     0.484484   
C373     C      0.753010000000     0.007540000000     0.563090000000     0.476551   
C374     C      0.753690000000     0.000640000000     0.943500000000     0.478504   
C375     C      0.750070000000     0.064090000000     0.999880000000     0.501546   
C376     C      0.756850000000     0.444590000000     0.006210000000     0.494914   
C377     C      0.503000000000     0.255460000000     0.563380000000     0.477373   
C378     C      0.502150000000     0.251960000000     0.943630000000     0.498665   
C379     C      0.562050000000     0.254180000000     0.003290000000     0.482794   
C380     C      0.942240000000     0.253270000000     0.003120000000     0.488887   
C381     C      0.750130000000     0.194460000000     0.001330000000     0.474692   
C382     C      0.754590000000     0.314300000000     0.005920000000     0.467894   
C383     C      0.692290000000     0.255450000000     0.504160000000     0.495355   
C384     C      0.812030000000     0.252700000000     0.502940000000     0.478704   
C385     C      0.860910000000     0.238840000000     0.526880000000     0.0325635  
C386     C      0.860500000000     0.265950000000     0.977950000000     0.00797048 
C387     C      0.893920000000     0.237820000000     0.526000000000     0.0410414  
C388     C      0.893600000000     0.267430000000     0.978360000000     0.162748   
C389     C      0.610770000000     0.279480000000     0.491220000000     0.0382295  
C390     C      0.610760000000     0.229420000000     0.516230000000     0.004713   
C391     C      0.643800000000     0.278940000000     0.490230000000     0.0466499  
C392     C      0.643850000000     0.230080000000     0.517790000000     0.158991   
C393     C      0.741390000000     0.363290000000     0.530150000000     0.0333738  
C394     C      0.773460000000     0.362550000000     0.984360000000     0.0102868  
C395     C      0.741080000000     0.396360000000     0.529240000000     0.0451703  
C396     C      0.775510000000     0.395640000000     0.985000000000     0.167752   
C397     C      0.764970000000     0.145250000000     0.523350000000     0.0368647  
C398     C      0.733400000000     0.146230000000     0.477210000000     0.00796935 
C399     C      0.765620000000     0.112340000000     0.522240000000     0.0435227  
C400     C      0.731800000000     0.112970000000     0.477550000000     0.158817   
C401     C      0.768580000000     0.023660000000     0.862130000000     0.0428159  
C402     C      0.738100000000     0.476760000000     0.861630000000     0.00876803 
C403     C      0.770200000000     0.022290000000     0.895050000000     0.0400852  
C404     C      0.737330000000     0.476830000000     0.894800000000     0.166602   
C405     C      0.774080000000     0.025210000000     0.612140000000     0.0320487  
C406     C      0.730490000000     0.490220000000     0.611080000000     0.0013695  
C407     C      0.772530000000     0.026010000000     0.645230000000     0.0385262  
C408     C      0.730990000000     0.488340000000     0.644070000000     0.158241   
C409     C      0.478980000000     0.235990000000     0.862160000000     0.0413669  
C410     C      0.525520000000     0.267020000000     0.861940000000     0.0074738  
C411     C      0.480290000000     0.234530000000     0.895260000000     0.0513511  
C412     C      0.525430000000     0.267810000000     0.894940000000     0.163951   
C413     C      0.989360000000     0.279430000000     0.612410000000     0.040376   
C414     C      0.020810000000     0.233170000000     0.611640000000    -0.00207796 
C415     C      0.988980000000     0.278460000000     0.645470000000     0.0509977  
C416     C      0.022690000000     0.233630000000     0.644700000000     0.154673   
C417     C      0.610900000000     0.489960000000     0.731000000000     0.0426908  
C418     C      0.610780000000     0.024220000000     0.775190000000     0.00735872 
C419     C      0.643890000000     0.488840000000     0.732140000000     0.0439156  
C420     C      0.643910000000     0.025540000000     0.774510000000     0.15775    
C421     C      0.861610000000     0.477500000000     0.742290000000     0.0322295  
C422     C      0.860390000000     0.024160000000     0.773150000000    -0.00017601 
C423     C      0.894670000000     0.478610000000     0.742220000000     0.0425716  
C424     C      0.893420000000     0.023800000000     0.775430000000     0.156099   
C425     C      0.979160000000     0.362930000000     0.744570000000     0.041656   
C426     C      0.528220000000     0.362020000000     0.771470000000     0.00315962 
C427     C      0.980030000000     0.395920000000     0.744220000000     0.053702   
C428     C      0.527790000000     0.395130000000     0.773620000000     0.158081   
C429     C      0.988020000000     0.112460000000     0.728930000000     0.0477328  
C430     C      0.517030000000     0.112400000000     0.776740000000     0.00659225 
C431     C      0.987530000000     0.145580000000     0.729430000000     0.0583084  
C432     C      0.518840000000     0.145420000000     0.775950000000     0.16051    
C433     C      0.001300000000     0.563730000000     0.253930000000     0.466484   
C434     C      0.004020000000     0.943950000000     0.258260000000     0.492308   
C435     C      0.942540000000     0.002180000000     0.258180000000     0.49021    
C436     C      0.562270000000     0.005660000000     0.254070000000     0.483683   
C437     C      0.503700000000     0.694050000000     0.251890000000     0.499721   
C438     C      0.503740000000     0.813840000000     0.255910000000     0.479624   
C439     C      0.005360000000     0.755720000000     0.193640000000     0.477025   
C440     C      0.002330000000     0.751960000000     0.313360000000     0.470317   
C441     C      0.812430000000     0.501790000000     0.254710000000     0.47892    
C442     C      0.692550000000     0.506110000000     0.253120000000     0.496255   
C443     C      0.752460000000     0.005880000000     0.193340000000     0.479685   
C444     C      0.752210000000     0.001730000000     0.313240000000     0.472734   
C445     C      0.753010000000     0.507540000000     0.063090000000     0.477593   
C446     C      0.753690000000     0.500640000000     0.443500000000     0.503232   
C447     C      0.750070000000     0.564090000000     0.499880000000     0.494193   
C448     C      0.756850000000     0.944590000000     0.506210000000     0.494597   
C449     C      0.503000000000     0.755460000000     0.063380000000     0.476621   
C450     C      0.502150000000     0.751960000000     0.443630000000     0.499986   
C451     C      0.562050000000     0.754180000000     0.503290000000     0.484273   
C452     C      0.942240000000     0.753270000000     0.503120000000     0.490448   
C453     C      0.750130000000     0.694450000000     0.501330000000     0.484506   
C454     C      0.754590000000     0.814300000000     0.505930000000     0.478285   
C455     C      0.692290000000     0.755450000000     0.004160000000     0.485075   
C456     C      0.812030000000     0.752700000000     0.002940000000     0.468526   
C457     C      0.860910000000     0.738840000000     0.026880000000     0.0311422  
C458     C      0.860500000000     0.765950000000     0.477950000000     0.00192439 
C459     C      0.893920000000     0.737820000000     0.026000000000     0.040071   
C460     C      0.893600000000     0.767430000000     0.478360000000     0.156865   
C461     C      0.610770000000     0.779480000000     0.991220000000     0.0453124  
C462     C      0.610760000000     0.729420000000     0.016230000000     0.00343494 
C463     C      0.643800000000     0.778940000000     0.990230000000     0.0527651  
C464     C      0.643850000000     0.730080000000     0.017790000000     0.157654   
C465     C      0.741390000000     0.863290000000     0.030150000000     0.0320882  
C466     C      0.773460000000     0.862550000000     0.484360000000     0.00446055 
C467     C      0.741080000000     0.896360000000     0.029240000000     0.0442141  
C468     C      0.775510000000     0.895640000000     0.484990000000     0.161757   
C469     C      0.764970000000     0.645250000000     0.023350000000     0.0380207  
C470     C      0.733400000000     0.646230000000     0.977210000000     0.0165243  
C471     C      0.765620000000     0.612340000000     0.022240000000     0.035366   
C472     C      0.731800000000     0.612980000000     0.977550000000     0.158323   
C473     C      0.768580000000     0.523660000000     0.362130000000     0.0407322  
C474     C      0.738100000000     0.976760000000     0.361630000000     0.019041   
C475     C      0.770200000000     0.522290000000     0.395050000000     0.0512012  
C476     C      0.737330000000     0.976830000000     0.394800000000     0.165136   
C477     C      0.774080000000     0.525210000000     0.112140000000     0.0331277  
C478     C      0.730490000000     0.990220000000     0.111080000000     0.00965448 
C479     C      0.772530000000     0.526010000000     0.145230000000     0.0404796  
C480     C      0.730990000000     0.988340000000     0.144070000000     0.164256   
C481     C      0.478980000000     0.735990000000     0.362160000000     0.0411943  
C482     C      0.525520000000     0.767010000000     0.361930000000     0.0074654  
C483     C      0.480290000000     0.734530000000     0.395260000000     0.0511968  
C484     C      0.525430000000     0.767810000000     0.394940000000     0.163822   
C485     C      0.989360000000     0.779430000000     0.112410000000     0.0403541  
C486     C      0.020810000000     0.733170000000     0.111650000000    -0.00219392 
C487     C      0.988980000000     0.778470000000     0.145470000000     0.0509302  
C488     C      0.022690000000     0.733630000000     0.144700000000     0.154689   
C489     C      0.610900000000     0.989960000000     0.231000000000     0.0508227  
C490     C      0.610780000000     0.524220000000     0.275180000000     0.00891639 
C491     C      0.643890000000     0.988840000000     0.232140000000     0.050963   
C492     C      0.643910000000     0.525550000000     0.274510000000     0.159271   
C493     C      0.861610000000     0.977500000000     0.242290000000     0.0392399  
C494     C      0.860390000000     0.524160000000     0.273150000000     0.00161323 
C495     C      0.894670000000     0.978610000000     0.242220000000     0.0507707  
C496     C      0.893420000000     0.523800000000     0.275440000000     0.157027   
C497     C      0.979160000000     0.862930000000     0.244570000000     0.0419069  
C498     C      0.528220000000     0.862010000000     0.271470000000     0.00345072 
C499     C      0.980030000000     0.895920000000     0.244220000000     0.0539601  
C500     C      0.527790000000     0.895130000000     0.273620000000     0.15809    
C501     C      0.988020000000     0.612460000000     0.228930000000     0.0478619  
C502     C      0.517030000000     0.612400000000     0.276740000000     0.00664277 
C503     C      0.987530000000     0.645580000000     0.229430000000     0.0583293  
C504     C      0.518840000000     0.645420000000     0.275950000000     0.160531   
C505     C      0.001300000000     0.563730000000     0.753930000000     0.466472   
C506     C      0.004020000000     0.943950000000     0.758260000000     0.492284   
C507     C      0.942540000000     0.002180000000     0.758180000000     0.490188   
C508     C      0.562270000000     0.005660000000     0.754070000000     0.48365    
C509     C      0.503700000000     0.694050000000     0.751890000000     0.499725   
C510     C      0.503740000000     0.813840000000     0.755910000000     0.479658   
C511     C      0.005360000000     0.755720000000     0.693640000000     0.477047   
C512     C      0.002330000000     0.751960000000     0.813360000000     0.470358   
C513     C      0.812430000000     0.501790000000     0.754710000000     0.478927   
C514     C      0.692550000000     0.506110000000     0.753120000000     0.496255   
C515     C      0.752460000000     0.005880000000     0.693340000000     0.479693   
C516     C      0.752210000000     0.001730000000     0.813240000000     0.472791   
C517     C      0.753010000000     0.507540000000     0.563090000000     0.478798   
C518     C      0.753690000000     0.500640000000     0.943500000000     0.501234   
C519     C      0.750070000000     0.564090000000     0.999880000000     0.502831   
C520     C      0.756850000000     0.944590000000     0.006210000000     0.49271    
C521     C      0.503000000000     0.755460000000     0.563380000000     0.477364   
C522     C      0.502150000000     0.751960000000     0.943630000000     0.498619   
C523     C      0.562050000000     0.754180000000     0.003290000000     0.48276    
C524     C      0.942240000000     0.753270000000     0.003120000000     0.488864   
C525     C      0.750130000000     0.694450000000     0.001330000000     0.474622   
C526     C      0.754590000000     0.814300000000     0.005920000000     0.467985   
C527     C      0.692290000000     0.755450000000     0.504160000000     0.495357   
C528     C      0.812030000000     0.752700000000     0.502940000000     0.478734   
C529     C      0.860910000000     0.738840000000     0.526880000000     0.032649   
C530     C      0.860500000000     0.765950000000     0.977950000000     0.00805378 
C531     C      0.893920000000     0.737820000000     0.526000000000     0.0411322  
C532     C      0.893600000000     0.767430000000     0.978360000000     0.162806   
C533     C      0.610770000000     0.779480000000     0.491220000000     0.0382988  
C534     C      0.610760000000     0.729420000000     0.516230000000     0.0047624  
C535     C      0.643800000000     0.778940000000     0.490230000000     0.0467249  
C536     C      0.643850000000     0.730080000000     0.517790000000     0.159005   
C537     C      0.741390000000     0.863290000000     0.530150000000     0.0336815  
C538     C      0.773460000000     0.862550000000     0.984360000000     0.0105604  
C539     C      0.741080000000     0.896360000000     0.529240000000     0.0454153  
C540     C      0.775510000000     0.895640000000     0.985000000000     0.167689   
C541     C      0.764970000000     0.645250000000     0.523350000000     0.0369389  
C542     C      0.733400000000     0.646230000000     0.477210000000     0.00801933 
C543     C      0.765620000000     0.612340000000     0.522240000000     0.043713   
C544     C      0.731800000000     0.612980000000     0.477550000000     0.158829   
C545     C      0.768580000000     0.523660000000     0.862130000000     0.0409533  
C546     C      0.738100000000     0.976760000000     0.861630000000     0.019211   
C547     C      0.770200000000     0.522290000000     0.895050000000     0.0512576  
C548     C      0.737330000000     0.976830000000     0.894800000000     0.165056   
C549     C      0.774080000000     0.525210000000     0.612140000000     0.0333809  
C550     C      0.730490000000     0.990220000000     0.611080000000     0.00990227 
C551     C      0.772530000000     0.526010000000     0.645230000000     0.0405391  
C552     C      0.730990000000     0.988340000000     0.644070000000     0.164288   
C553     C      0.478980000000     0.735990000000     0.862160000000     0.041413   
C554     C      0.525520000000     0.767010000000     0.861940000000     0.00759056 
C555     C      0.480290000000     0.734530000000     0.895260000000     0.051415   
C556     C      0.525430000000     0.767810000000     0.894940000000     0.163994   
C557     C      0.989360000000     0.779430000000     0.612410000000     0.0405191  
C558     C      0.020810000000     0.733170000000     0.611640000000    -0.00199646 
C559     C      0.988980000000     0.778470000000     0.645470000000     0.050992   
C560     C      0.022690000000     0.733630000000     0.644700000000     0.154697   
C561     C      0.610900000000     0.989960000000     0.731000000000     0.0508464  
C562     C      0.610780000000     0.524220000000     0.775190000000     0.00890216 
C563     C      0.643890000000     0.988840000000     0.732140000000     0.0510097  
C564     C      0.643910000000     0.525550000000     0.774510000000     0.159327   
C565     C      0.861610000000     0.977500000000     0.742290000000     0.0392836  
C566     C      0.860390000000     0.524160000000     0.773150000000     0.00170546 
C567     C      0.894670000000     0.978610000000     0.742220000000     0.0508302  
C568     C      0.893420000000     0.523800000000     0.775430000000     0.157079   
C569     C      0.979160000000     0.862930000000     0.744570000000     0.0419573  
C570     C      0.528220000000     0.862010000000     0.771470000000     0.00352587 
C571     C      0.980030000000     0.895920000000     0.744220000000     0.054021   
C572     C      0.527790000000     0.895130000000     0.773620000000     0.158148   
C573     C      0.988020000000     0.612460000000     0.728930000000     0.0478832  
C574     C      0.517030000000     0.612400000000     0.776740000000     0.006717   
C575     C      0.987530000000     0.645580000000     0.729430000000     0.0583546  
C576     C      0.518840000000     0.645420000000     0.775950000000     0.160538   
H1       H      0.406420000000     0.226210000000     0.045220000000     0.0317562  
H2       H      0.348820000000     0.227530000000     0.046520000000     0.0365479  
H3       H      0.347920000000     0.276870000000     0.458380000000     0.0643663  
H4       H      0.156150000000     0.298730000000     0.979410000000     0.0398618  
H5       H      0.098570000000     0.299540000000     0.980800000000     0.0554685  
H6       H      0.098360000000     0.209260000000     0.026260000000     0.0646925  
H7       H      0.227500000000     0.409010000000     0.047030000000     0.0355312  
H8       H      0.227730000000     0.351360000000     0.048340000000     0.040353   
H9       H      0.286070000000     0.349790000000     0.465950000000     0.0662905  
H10      H      0.279030000000     0.099800000000     0.040260000000     0.0334915  
H11      H      0.278250000000     0.156990000000     0.041950000000     0.0382843  
H12      H      0.220820000000     0.159100000000     0.958870000000     0.068115   
H13      H      0.283280000000     0.040640000000     0.407420000000     0.0441789  
H14      H      0.281030000000     0.042670000000     0.350120000000     0.0435528  
H15      H      0.225620000000     0.458180000000     0.348990000000     0.0690697  
H16      H      0.289360000000     0.040670000000     0.157970000000     0.0333337  
H17      H      0.291650000000     0.039650000000     0.100200000000     0.0341573  
H18      H      0.213340000000     0.476060000000     0.098160000000     0.061109   
H19      H      0.962110000000     0.221360000000     0.407770000000     0.0426762  
H20      H      0.960260000000     0.223310000000     0.349970000000     0.0456905  
H21      H      0.044090000000     0.279710000000     0.349490000000     0.068768   
H22      H      0.475740000000     0.296500000000     0.158140000000     0.0314907  
H23      H      0.476030000000     0.297890000000     0.100500000000     0.0380224  
H24      H      0.533200000000     0.214580000000     0.098930000000     0.0644995  
H25      H      0.156100000000     0.473880000000     0.215320000000     0.0553536  
H26      H      0.098690000000     0.475590000000     0.213550000000     0.0440617  
H27      H      0.098240000000     0.037880000000     0.292990000000     0.0668233  
H28      H      0.407560000000     0.460520000000     0.229270000000     0.0300217  
H29      H      0.349880000000     0.458870000000     0.229050000000     0.0380617  
H30      H      0.347470000000     0.042830000000     0.285200000000     0.0629328  
H31      H      0.460860000000     0.408640000000     0.232740000000     0.0293194  
H32      H      0.459520000000     0.351100000000     0.232980000000     0.0368638  
H33      H      0.047840000000     0.349190000000     0.282010000000     0.0658062  
H34      H      0.475330000000     0.158030000000     0.210540000000     0.0389918  
H35      H      0.475760000000     0.100230000000     0.209960000000     0.041209   
H36      H      0.028530000000     0.099990000000     0.296090000000     0.0677595  
H37      H      0.406420000000     0.226210000000     0.545220000000     0.0319452  
H38      H      0.348820000000     0.227530000000     0.546520000000     0.0365577  
H39      H      0.347920000000     0.276870000000     0.958380000000     0.0639802  
H40      H      0.156150000000     0.298730000000     0.479410000000     0.0391751  
H41      H      0.098570000000     0.299540000000     0.480800000000     0.0546639  
H42      H      0.098360000000     0.209260000000     0.526260000000     0.0651572  
H43      H      0.227500000000     0.409010000000     0.547030000000     0.03578    
H44      H      0.227730000000     0.351360000000     0.548340000000     0.0405671  
H45      H      0.286070000000     0.349790000000     0.965950000000     0.0660194  
H46      H      0.279030000000     0.099800000000     0.540250000000     0.0325459  
H47      H      0.278250000000     0.156990000000     0.541950000000     0.0390004  
H48      H      0.220820000000     0.159100000000     0.458870000000     0.0686642  
H49      H      0.283280000000     0.040640000000     0.907420000000     0.0449208  
H50      H      0.281030000000     0.042670000000     0.850120000000     0.0437494  
H51      H      0.225620000000     0.458180000000     0.848990000000     0.0691202  
H52      H      0.289360000000     0.040670000000     0.657970000000     0.0334368  
H53      H      0.291650000000     0.039650000000     0.600200000000     0.0344632  
H54      H      0.213340000000     0.476060000000     0.598160000000     0.0613477  
H55      H      0.962110000000     0.221360000000     0.907760000000     0.0435452  
H56      H      0.960260000000     0.223310000000     0.849970000000     0.0459018  
H57      H      0.044090000000     0.279710000000     0.849500000000     0.0688797  
H58      H      0.475740000000     0.296500000000     0.658140000000     0.0316163  
H59      H      0.476030000000     0.297890000000     0.600500000000     0.0383719  
H60      H      0.533200000000     0.214580000000     0.598930000000     0.0646824  
H61      H      0.156100000000     0.473880000000     0.715320000000     0.0554073  
H62      H      0.098690000000     0.475590000000     0.713550000000     0.0441982  
H63      H      0.098240000000     0.037880000000     0.792990000000     0.0670473  
H64      H      0.407560000000     0.460520000000     0.729270000000     0.0301251  
H65      H      0.349880000000     0.458870000000     0.729050000000     0.0381365  
H66      H      0.347470000000     0.042830000000     0.785210000000     0.0630455  
H67      H      0.460860000000     0.408640000000     0.732740000000     0.0294174  
H68      H      0.459520000000     0.351100000000     0.732980000000     0.0369331  
H69      H      0.047840000000     0.349190000000     0.782010000000     0.0658835  
H70      H      0.475330000000     0.158030000000     0.710540000000     0.0390584  
H71      H      0.475760000000     0.100230000000     0.709960000000     0.0413394  
H72      H      0.028530000000     0.099990000000     0.796090000000     0.067991   
H73      H      0.406420000000     0.726210000000     0.045220000000     0.0318808  
H74      H      0.348820000000     0.727530000000     0.046520000000     0.0366319  
H75      H      0.347920000000     0.776870000000     0.458380000000     0.0644706  
H76      H      0.156150000000     0.798730000000     0.979410000000     0.040049   
H77      H      0.098570000000     0.799540000000     0.980800000000     0.0557508  
H78      H      0.098360000000     0.709260000000     0.026260000000     0.0648603  
H79      H      0.227500000000     0.909010000000     0.047030000000     0.0364755  
H80      H      0.227730000000     0.851360000000     0.048340000000     0.0405814  
H81      H      0.286070000000     0.849790000000     0.465950000000     0.0663942  
H82      H      0.279030000000     0.599800000000     0.040260000000     0.0336667  
H83      H      0.278250000000     0.656990000000     0.041950000000     0.0383833  
H84      H      0.220820000000     0.659100000000     0.958870000000     0.0681386  
H85      H      0.283280000000     0.540640000000     0.407420000000     0.0419895  
H86      H      0.281030000000     0.542670000000     0.350120000000     0.0444504  
H87      H      0.225620000000     0.958180000000     0.348990000000     0.0681794  
H88      H      0.289360000000     0.540670000000     0.157970000000     0.0336225  
H89      H      0.291650000000     0.539650000000     0.100200000000     0.0346166  
H90      H      0.213340000000     0.976060000000     0.098160000000     0.0617075  
H91      H      0.962110000000     0.721360000000     0.407770000000     0.0427683  
H92      H      0.960260000000     0.723320000000     0.349970000000     0.0457504  
H93      H      0.044090000000     0.779700000000     0.349490000000     0.0688578  
H94      H      0.475740000000     0.796500000000     0.158140000000     0.0317562  
H95      H      0.476030000000     0.797890000000     0.100500000000     0.0383623  
H96      H      0.533200000000     0.714580000000     0.098930000000     0.0646488  
H97      H      0.156100000000     0.973880000000     0.215320000000     0.0553094  
H98      H      0.098690000000     0.975590000000     0.213550000000     0.04482    
H99      H      0.098240000000     0.537880000000     0.292990000000     0.0671891  
H100     H      0.407560000000     0.960520000000     0.229270000000     0.0305348  
H101     H      0.349880000000     0.958870000000     0.229050000000     0.0382203  
H102     H      0.347470000000     0.542840000000     0.285200000000     0.0628522  
H103     H      0.460860000000     0.908640000000     0.232740000000     0.030378   
H104     H      0.459520000000     0.851100000000     0.232980000000     0.0371489  
H105     H      0.047840000000     0.849190000000     0.282010000000     0.0658809  
H106     H      0.475330000000     0.658030000000     0.210540000000     0.0391134  
H107     H      0.475760000000     0.600230000000     0.209960000000     0.0415795  
H108     H      0.028530000000     0.599990000000     0.296090000000     0.0679945  
H109     H      0.406420000000     0.726210000000     0.545220000000     0.0320705  
H110     H      0.348820000000     0.727530000000     0.546520000000     0.0366423  
H111     H      0.347920000000     0.776870000000     0.958380000000     0.0640844  
H112     H      0.156150000000     0.798730000000     0.479410000000     0.0393661  
H113     H      0.098570000000     0.799540000000     0.480800000000     0.0549506  
H114     H      0.098360000000     0.709260000000     0.526260000000     0.0653263  
H115     H      0.227500000000     0.909010000000     0.547030000000     0.0367249  
H116     H      0.227730000000     0.851360000000     0.548340000000     0.0407955  
H117     H      0.286070000000     0.849790000000     0.965950000000     0.0661236  
H118     H      0.279030000000     0.599800000000     0.540250000000     0.0327213  
H119     H      0.278250000000     0.656990000000     0.541950000000     0.0391001  
H120     H      0.220820000000     0.659100000000     0.458870000000     0.0686884  
H121     H      0.283280000000     0.540640000000     0.907420000000     0.0427401  
H122     H      0.281030000000     0.542670000000     0.850120000000     0.044644   
H123     H      0.225620000000     0.958180000000     0.848990000000     0.0682328  
H124     H      0.289360000000     0.540670000000     0.657970000000     0.0337261  
H125     H      0.291650000000     0.539650000000     0.600200000000     0.0349238  
H126     H      0.213340000000     0.976060000000     0.598160000000     0.0619465  
H127     H      0.962110000000     0.721360000000     0.907760000000     0.0436364  
H128     H      0.960260000000     0.723320000000     0.849970000000     0.0459614  
H129     H      0.044090000000     0.779700000000     0.849500000000     0.0689689  
H130     H      0.475740000000     0.796500000000     0.658140000000     0.0318815  
H131     H      0.476030000000     0.797890000000     0.600500000000     0.0387114  
H132     H      0.533200000000     0.714580000000     0.598930000000     0.0648323  
H133     H      0.156100000000     0.973880000000     0.715320000000     0.0553638  
H134     H      0.098690000000     0.975590000000     0.713550000000     0.0449565  
H135     H      0.098240000000     0.537880000000     0.792990000000     0.0674119  
H136     H      0.407560000000     0.960520000000     0.729270000000     0.0306381  
H137     H      0.349880000000     0.958870000000     0.729050000000     0.0382955  
H138     H      0.347470000000     0.542840000000     0.785210000000     0.0629654  
H139     H      0.460860000000     0.908640000000     0.732740000000     0.0304748  
H140     H      0.459520000000     0.851100000000     0.732980000000     0.0372178  
H141     H      0.047840000000     0.849190000000     0.782010000000     0.0659578  
H142     H      0.475330000000     0.658030000000     0.710540000000     0.0391803  
H143     H      0.475760000000     0.600230000000     0.709960000000     0.0417107  
H144     H      0.028530000000     0.599990000000     0.796090000000     0.0682256  
H145     H      0.906420000000     0.226210000000     0.045220000000     0.0332709  
H146     H      0.848820000000     0.227530000000     0.046520000000     0.0369333  
H147     H      0.847920000000     0.276870000000     0.458380000000     0.0645126  
H148     H      0.656150000000     0.298730000000     0.979410000000     0.0400343  
H149     H      0.598570000000     0.299540000000     0.980800000000     0.0558325  
H150     H      0.598360000000     0.209260000000     0.026260000000     0.065091   
H151     H      0.727500000000     0.409010000000     0.047030000000     0.0357086  
H152     H      0.727730000000     0.351360000000     0.048340000000     0.0404987  
H153     H      0.786070000000     0.349790000000     0.465950000000     0.0664448  
H154     H      0.779020000000     0.099800000000     0.040260000000     0.0337663  
H155     H      0.778250000000     0.156990000000     0.041950000000     0.0385068  
H156     H      0.720820000000     0.159100000000     0.958870000000     0.0681939  
H157     H      0.783280000000     0.040640000000     0.407420000000     0.0444589  
H158     H      0.781030000000     0.042670000000     0.350120000000     0.0437376  
H159     H      0.725620000000     0.458180000000     0.348990000000     0.0691298  
H160     H      0.789360000000     0.040670000000     0.157970000000     0.0336056  
H161     H      0.791650000000     0.039650000000     0.100200000000     0.0345377  
H162     H      0.713340000000     0.476060000000     0.098160000000     0.0613176  
H163     H      0.462110000000     0.221360000000     0.407770000000     0.0424943  
H164     H      0.460260000000     0.223310000000     0.349970000000     0.0455538  
H165     H      0.544090000000     0.279710000000     0.349490000000     0.0687271  
H166     H      0.975740000000     0.296500000000     0.158140000000     0.031972   
H167     H      0.976030000000     0.297890000000     0.100500000000     0.0384739  
H168     H      0.033200000000     0.214580000000     0.098930000000     0.0642227  
H169     H      0.656100000000     0.473880000000     0.215320000000     0.0555119  
H170     H      0.598690000000     0.475590000000     0.213550000000     0.0445427  
H171     H      0.598240000000     0.037880000000     0.292990000000     0.0671004  
H172     H      0.907560000000     0.460520000000     0.229270000000     0.0313256  
H173     H      0.849880000000     0.458870000000     0.229050000000     0.0383985  
H174     H      0.847470000000     0.042830000000     0.285200000000     0.0630783  
H175     H      0.960860000000     0.408640000000     0.232740000000     0.0298477  
H176     H      0.959520000000     0.351100000000     0.232980000000     0.0366914  
H177     H      0.547840000000     0.349190000000     0.282010000000     0.0656792  
H178     H      0.975330000000     0.158030000000     0.210540000000     0.0399896  
H179     H      0.975760000000     0.100230000000     0.209960000000     0.0417933  
H180     H      0.528530000000     0.099990000000     0.296090000000     0.0681322  
H181     H      0.906420000000     0.226210000000     0.545220000000     0.0334613  
H182     H      0.848820000000     0.227530000000     0.546520000000     0.0369429  
H183     H      0.847920000000     0.276870000000     0.958380000000     0.0641278  
H184     H      0.656150000000     0.298730000000     0.479410000000     0.0393498  
H185     H      0.598570000000     0.299540000000     0.480800000000     0.0550292  
H186     H      0.598360000000     0.209260000000     0.526260000000     0.0655567  
H187     H      0.727500000000     0.409010000000     0.547030000000     0.035958   
H188     H      0.727730000000     0.351360000000     0.548340000000     0.0407134  
H189     H      0.786070000000     0.349790000000     0.965950000000     0.0661734  
H190     H      0.779020000000     0.099800000000     0.540250000000     0.0328217  
H191     H      0.778250000000     0.156990000000     0.541950000000     0.0392217  
H192     H      0.720820000000     0.159100000000     0.458870000000     0.0687416  
H193     H      0.783280000000     0.040640000000     0.907420000000     0.0451976  
H194     H      0.781030000000     0.042670000000     0.850120000000     0.0439331  
H195     H      0.725620000000     0.458180000000     0.848990000000     0.0691802  
H196     H      0.789360000000     0.040670000000     0.657970000000     0.0337086  
H197     H      0.791650000000     0.039650000000     0.600200000000     0.0348432  
H198     H      0.713340000000     0.476060000000     0.598160000000     0.0615568  
H199     H      0.462110000000     0.221360000000     0.907760000000     0.0433687  
H200     H      0.460260000000     0.223310000000     0.849970000000     0.045766   
H201     H      0.544090000000     0.279710000000     0.849500000000     0.0688383  
H202     H      0.975740000000     0.296500000000     0.658140000000     0.0320968  
H203     H      0.976030000000     0.297890000000     0.600500000000     0.0388225  
H204     H      0.033200000000     0.214580000000     0.598930000000     0.0644047  
H205     H      0.656100000000     0.473880000000     0.715320000000     0.0555658  
H206     H      0.598690000000     0.475590000000     0.713550000000     0.0446799  
H207     H      0.598240000000     0.037880000000     0.792990000000     0.0673236  
H208     H      0.907560000000     0.460520000000     0.729270000000     0.0314274  
H209     H      0.849880000000     0.458870000000     0.729050000000     0.0384729  
H210     H      0.847470000000     0.042830000000     0.785210000000     0.0631904  
H211     H      0.960860000000     0.408640000000     0.732740000000     0.0299455  
H212     H      0.959520000000     0.351100000000     0.732980000000     0.0367614  
H213     H      0.547840000000     0.349190000000     0.782010000000     0.0657566  
H214     H      0.975330000000     0.158030000000     0.710540000000     0.0400567  
H215     H      0.975760000000     0.100230000000     0.709960000000     0.0419243  
H216     H      0.528530000000     0.099990000000     0.796090000000     0.0683625  
H217     H      0.906420000000     0.726210000000     0.045220000000     0.0333932  
H218     H      0.848820000000     0.727530000000     0.046520000000     0.0370167  
H219     H      0.847920000000     0.776870000000     0.458380000000     0.0646162  
H220     H      0.656150000000     0.798730000000     0.979410000000     0.0402209  
H221     H      0.598570000000     0.799540000000     0.980800000000     0.0561139  
H222     H      0.598360000000     0.709260000000     0.026260000000     0.0652592  
H223     H      0.727500000000     0.909010000000     0.047030000000     0.0366505  
H224     H      0.727730000000     0.851360000000     0.048340000000     0.0407264  
H225     H      0.786070000000     0.849790000000     0.465950000000     0.0665476  
H226     H      0.779020000000     0.599800000000     0.040260000000     0.033941   
H227     H      0.778250000000     0.656990000000     0.041950000000     0.0386054  
H228     H      0.720820000000     0.659100000000     0.958870000000     0.0682176  
H229     H      0.783280000000     0.540640000000     0.407420000000     0.0422746  
H230     H      0.781030000000     0.542670000000     0.350120000000     0.0446331  
H231     H      0.725620000000     0.958180000000     0.348990000000     0.0682419  
H232     H      0.789360000000     0.540670000000     0.157970000000     0.0338937  
H233     H      0.791650000000     0.539650000000     0.100200000000     0.0349961  
H234     H      0.713340000000     0.976060000000     0.098160000000     0.0619149  
H235     H      0.462110000000     0.721360000000     0.407770000000     0.0425855  
H236     H      0.460260000000     0.723320000000     0.349970000000     0.0456143  
H237     H      0.544090000000     0.779700000000     0.349490000000     0.0688166  
H238     H      0.975740000000     0.796500000000     0.158140000000     0.0322332  
H239     H      0.976030000000     0.797890000000     0.100500000000     0.0388089  
H240     H      0.033200000000     0.714580000000     0.098930000000     0.0643705  
H241     H      0.656100000000     0.973880000000     0.215320000000     0.0554675  
H242     H      0.598690000000     0.975590000000     0.213550000000     0.0452992  
H243     H      0.598240000000     0.537880000000     0.292990000000     0.0674668  
H244     H      0.907560000000     0.960520000000     0.229270000000     0.0318315  
H245     H      0.849880000000     0.958870000000     0.229050000000     0.0385547  
H246     H      0.847470000000     0.542840000000     0.285200000000     0.0629985  
H247     H      0.960860000000     0.908640000000     0.232740000000     0.0308999  
H248     H      0.959520000000     0.851100000000     0.232980000000     0.0369752  
H249     H      0.547840000000     0.849190000000     0.282010000000     0.0657548  
H250     H      0.975330000000     0.658030000000     0.210540000000     0.0401095  
H251     H      0.975760000000     0.600230000000     0.209960000000     0.0421622  
H252     H      0.528530000000     0.599990000000     0.296090000000     0.0683681  
H253     H      0.906420000000     0.726210000000     0.545220000000     0.0335843  
H254     H      0.848820000000     0.727530000000     0.546520000000     0.0370269  
H255     H      0.847920000000     0.776870000000     0.958380000000     0.0642313  
H256     H      0.656150000000     0.798730000000     0.479410000000     0.0395403  
H257     H      0.598570000000     0.799540000000     0.480800000000     0.055315   
H258     H      0.598360000000     0.709260000000     0.526260000000     0.0657262  
H259     H      0.727500000000     0.909010000000     0.547030000000     0.0369005  
H260     H      0.727730000000     0.851360000000     0.548340000000     0.040941   
H261     H      0.786070000000     0.849790000000     0.965950000000     0.0662767  
H262     H      0.779020000000     0.599800000000     0.540250000000     0.0329967  
H263     H      0.778250000000     0.656990000000     0.541950000000     0.0393211  
H264     H      0.720820000000     0.659100000000     0.458870000000     0.0687659  
H265     H      0.783280000000     0.540640000000     0.907420000000     0.0430218  
H266     H      0.781030000000     0.542670000000     0.850120000000     0.0448255  
H267     H      0.725620000000     0.958180000000     0.848990000000     0.0682952  
H268     H      0.789360000000     0.540670000000     0.657970000000     0.0339971  
H269     H      0.791650000000     0.539650000000     0.600200000000     0.035303   
H270     H      0.713340000000     0.976060000000     0.598160000000     0.0621546  
H271     H      0.462110000000     0.721360000000     0.907760000000     0.043459   
H272     H      0.460260000000     0.723320000000     0.849970000000     0.0458263  
H273     H      0.544090000000     0.779700000000     0.849500000000     0.0689273  
H274     H      0.975740000000     0.796500000000     0.658140000000     0.0323577  
H275     H      0.976030000000     0.797890000000     0.600500000000     0.0391569  
H276     H      0.033200000000     0.714580000000     0.598930000000     0.0645531  
H277     H      0.656100000000     0.973880000000     0.715320000000     0.055522   
H278     H      0.598690000000     0.975590000000     0.713550000000     0.0454364  
H279     H      0.598240000000     0.537880000000     0.792990000000     0.0676889  
H280     H      0.907560000000     0.960520000000     0.729270000000     0.0319333  
H281     H      0.849880000000     0.958870000000     0.729050000000     0.0386296  
H282     H      0.847470000000     0.542840000000     0.785210000000     0.0631109  
H283     H      0.960860000000     0.908640000000     0.732740000000     0.0309965  
H284     H      0.959520000000     0.851100000000     0.732980000000     0.0370448  
H285     H      0.547840000000     0.849190000000     0.782010000000     0.0658316  
H286     H      0.975330000000     0.658030000000     0.710540000000     0.0401769  
H287     H      0.975760000000     0.600230000000     0.709960000000     0.042294   
H288     H      0.528530000000     0.599990000000     0.796090000000     0.0685979  
N1       N      0.344370000000     0.252430000000     0.002580000000    -0.184224   
N2       N      0.410050000000     0.252950000000     0.502370000000    -0.205324   
N3       N      0.094410000000     0.254380000000     0.503580000000    -0.178482   
N4       N      0.160100000000     0.254780000000     0.004270000000    -0.207483   
N5       N      0.256640000000     0.346580000000     0.507010000000    -0.180446   
N6       N      0.258420000000     0.412360000000     0.507020000000    -0.203246   
N7       N      0.249480000000     0.162100000000     0.500460000000    -0.178969   
N8       N      0.248600000000     0.096320000000     0.499870000000    -0.203767   
N9       N      0.252910000000     0.500660000000     0.345550000000    -0.178547   
N10      N      0.253780000000     0.499600000000     0.411270000000    -0.201124   
N11      N      0.252560000000     0.007830000000     0.095340000000    -0.186715   
N12      N      0.251730000000     0.506840000000     0.161060000000    -0.204281   
N13      N      0.502000000000     0.251740000000     0.345700000000    -0.178229   
N14      N      0.502880000000     0.251210000000     0.411420000000    -0.202462   
N15      N      0.004490000000     0.256210000000     0.095690000000    -0.184781   
N16      N      0.506100000000     0.256030000000     0.161410000000    -0.20504    
N17      N      0.094530000000     0.506880000000     0.253150000000    -0.179853   
N18      N      0.160280000000     0.007210000000     0.253220000000    -0.204594   
N19      N      0.344680000000     0.000930000000     0.256830000000    -0.184595   
N20      N      0.410350000000     0.501380000000     0.259140000000    -0.205284   
N21      N      0.003690000000     0.346150000000     0.257400000000    -0.185186   
N22      N      0.003910000000     0.411780000000     0.259230000000    -0.211701   
N23      N      0.502130000000     0.096070000000     0.253020000000    -0.179112   
N24      N      0.003570000000     0.161820000000     0.252410000000    -0.207338   
N25      N      0.344370000000     0.252430000000     0.502580000000    -0.181397   
N26      N      0.410050000000     0.252950000000     0.002370000000    -0.209382   
N27      N      0.094410000000     0.254380000000     0.003580000000    -0.182666   
N28      N      0.160100000000     0.254780000000     0.504270000000    -0.204699   
N29      N      0.256640000000     0.346580000000     0.007010000000    -0.183294   
N30      N      0.258420000000     0.412360000000     0.007020000000    -0.20729    
N31      N      0.249480000000     0.162100000000     0.000460000000    -0.182796   
N32      N      0.248600000000     0.096320000000     0.999870000000    -0.19952    
N33      N      0.252910000000     0.500660000000     0.845550000000    -0.178556   
N34      N      0.253780000000     0.499600000000     0.911270000000    -0.200526   
N35      N      0.252560000000     0.007830000000     0.595340000000    -0.186826   
N36      N      0.251730000000     0.506840000000     0.661060000000    -0.204254   
N37      N      0.502000000000     0.251740000000     0.845700000000    -0.178195   
N38      N      0.502880000000     0.251210000000     0.911420000000    -0.201883   
N39      N      0.004490000000     0.256210000000     0.595690000000    -0.184864   
N40      N      0.506100000000     0.256030000000     0.661410000000    -0.205024   
N41      N      0.094530000000     0.506880000000     0.753150000000    -0.179798   
N42      N      0.160280000000     0.007210000000     0.753220000000    -0.20459    
N43      N      0.344680000000     0.000930000000     0.756830000000    -0.184578   
N44      N      0.410350000000     0.501380000000     0.759140000000    -0.205259   
N45      N      0.003690000000     0.346150000000     0.757400000000    -0.185167   
N46      N      0.003910000000     0.411780000000     0.759230000000    -0.211649   
N47      N      0.502130000000     0.096070000000     0.753020000000    -0.179081   
N48      N      0.003570000000     0.161820000000     0.752410000000    -0.207326   
N49      N      0.344370000000     0.752430000000     0.002580000000    -0.1842     
N50      N      0.410050000000     0.752950000000     0.502370000000    -0.205271   
N51      N      0.094410000000     0.754380000000     0.503580000000    -0.178443   
N52      N      0.160100000000     0.754780000000     0.004270000000    -0.207468   
N53      N      0.256640000000     0.846580000000     0.507010000000    -0.180438   
N54      N      0.258420000000     0.912360000000     0.507020000000    -0.202465   
N55      N      0.249480000000     0.662100000000     0.500460000000    -0.179035   
N56      N      0.248600000000     0.596320000000     0.499870000000    -0.203881   
N57      N      0.252910000000     0.000660000000     0.345550000000    -0.183315   
N58      N      0.253780000000     0.999600000000     0.411270000000    -0.187648   
N59      N      0.252560000000     0.507830000000     0.095340000000    -0.181816   
N60      N      0.251730000000     0.006840000000     0.161060000000    -0.207445   
N61      N      0.502000000000     0.751740000000     0.345700000000    -0.178223   
N62      N      0.502880000000     0.751210000000     0.411420000000    -0.202418   
N63      N      0.004490000000     0.756210000000     0.095690000000    -0.184734   
N64      N      0.506100000000     0.756030000000     0.161410000000    -0.204993   
N65      N      0.094530000000     0.006880000000     0.253150000000    -0.184807   
N66      N      0.160280000000     0.507210000000     0.253220000000    -0.20123    
N67      N      0.344680000000     0.500930000000     0.256830000000    -0.181343   
N68      N      0.410350000000     0.001380000000     0.259140000000    -0.210217   
N69      N      0.003690000000     0.846150000000     0.257400000000    -0.18516    
N70      N      0.003910000000     0.911780000000     0.259230000000    -0.210951   
N71      N      0.502130000000     0.596070000000     0.253020000000    -0.179211   
N72      N      0.003570000000     0.661820000000     0.252410000000    -0.207328   
N73      N      0.344370000000     0.752430000000     0.502580000000    -0.181377   
N74      N      0.410050000000     0.752950000000     0.002370000000    -0.209324   
N75      N      0.094410000000     0.754380000000     0.003580000000    -0.18262    
N76      N      0.160100000000     0.754780000000     0.504270000000    -0.204689   
N77      N      0.256640000000     0.846580000000     0.007010000000    -0.183278   
N78      N      0.258420000000     0.912360000000     0.007020000000    -0.206498   
N79      N      0.249480000000     0.662100000000     0.000460000000    -0.182862   
N80      N      0.248600000000     0.596320000000     0.999870000000    -0.199634   
N81      N      0.252910000000     0.000660000000     0.845550000000    -0.18331    
N82      N      0.253780000000     0.999600000000     0.911270000000    -0.187102   
N83      N      0.252560000000     0.507830000000     0.595340000000    -0.181923   
N84      N      0.251730000000     0.006840000000     0.661060000000    -0.207419   
N85      N      0.502000000000     0.751740000000     0.845700000000    -0.178189   
N86      N      0.502880000000     0.751210000000     0.911420000000    -0.20184    
N87      N      0.004490000000     0.756210000000     0.595690000000    -0.184817   
N88      N      0.506100000000     0.756030000000     0.661410000000    -0.204976   
N89      N      0.094530000000     0.006880000000     0.753150000000    -0.184748   
N90      N      0.160280000000     0.507210000000     0.753220000000    -0.201229   
N91      N      0.344680000000     0.500930000000     0.756830000000    -0.181329   
N92      N      0.410350000000     0.001380000000     0.759140000000    -0.210188   
N93      N      0.003690000000     0.846150000000     0.757400000000    -0.185142   
N94      N      0.003910000000     0.911780000000     0.759230000000    -0.2109     
N95      N      0.502130000000     0.596070000000     0.753020000000    -0.17918    
N96      N      0.003570000000     0.661820000000     0.752410000000    -0.207315   
N97      N      0.844360000000     0.252430000000     0.002580000000    -0.184203   
N98      N      0.910050000000     0.252950000000     0.502370000000    -0.204203   
N99      N      0.594400000000     0.254380000000     0.503580000000    -0.178864   
N100     N      0.660100000000     0.254780000000     0.004270000000    -0.207348   
N101     N      0.756640000000     0.346580000000     0.507010000000    -0.180426   
N102     N      0.758420000000     0.412360000000     0.507020000000    -0.203176   
N103     N      0.749480000000     0.162100000000     0.500460000000    -0.178946   
N104     N      0.748600000000     0.096320000000     0.499870000000    -0.203704   
N105     N      0.752910000000     0.500660000000     0.345550000000    -0.178526   
N106     N      0.753780000000     0.499600000000     0.411270000000    -0.201068   
N107     N      0.752560000000     0.007830000000     0.095340000000    -0.186641   
N108     N      0.751730000000     0.506840000000     0.161060000000    -0.204254   
N109     N      0.002000000000     0.251740000000     0.345700000000    -0.182545   
N110     N      0.002880000000     0.251210000000     0.411420000000    -0.206241   
N111     N      0.504490000000     0.256210000000     0.095690000000    -0.181016   
N112     N      0.006100000000     0.256030000000     0.161410000000    -0.209425   
N113     N      0.594530000000     0.506880000000     0.253150000000    -0.180085   
N114     N      0.660280000000     0.007210000000     0.253220000000    -0.204587   
N115     N      0.844680000000     0.000930000000     0.256830000000    -0.184564   
N116     N      0.910350000000     0.501380000000     0.259140000000    -0.204262   
N117     N      0.503690000000     0.346150000000     0.257400000000    -0.181042   
N118     N      0.503910000000     0.411780000000     0.259230000000    -0.205466   
N119     N      0.002130000000     0.096070000000     0.253020000000    -0.183037   
N120     N      0.503570000000     0.161820000000     0.252410000000    -0.203002   
N121     N      0.844360000000     0.252430000000     0.502580000000    -0.181387   
N122     N      0.910050000000     0.252950000000     0.002370000000    -0.208248   
N123     N      0.594400000000     0.254380000000     0.003580000000    -0.183045   
N124     N      0.660100000000     0.254780000000     0.504270000000    -0.204564   
N125     N      0.756640000000     0.346580000000     0.007010000000    -0.183269   
N126     N      0.758420000000     0.412360000000     0.007020000000    -0.207213   
N127     N      0.749480000000     0.162100000000     0.000460000000    -0.182766   
N128     N      0.748600000000     0.096320000000     0.999870000000    -0.199467   
N129     N      0.752910000000     0.500660000000     0.845550000000    -0.178535   
N130     N      0.753780000000     0.499600000000     0.911270000000    -0.200471   
N131     N      0.752560000000     0.007830000000     0.595340000000    -0.186751   
N132     N      0.751730000000     0.506840000000     0.661060000000    -0.204227   
N133     N      0.002000000000     0.251740000000     0.845700000000    -0.182498   
N134     N      0.002880000000     0.251210000000     0.911420000000    -0.205653   
N135     N      0.504490000000     0.256210000000     0.595690000000    -0.181099   
N136     N      0.006100000000     0.256030000000     0.661410000000    -0.209409   
N137     N      0.594530000000     0.506880000000     0.753150000000    -0.18003    
N138     N      0.660280000000     0.007210000000     0.753220000000    -0.204583   
N139     N      0.844680000000     0.000930000000     0.756830000000    -0.184548   
N140     N      0.910350000000     0.501380000000     0.759140000000    -0.204238   
N141     N      0.503690000000     0.346150000000     0.757400000000    -0.181028   
N142     N      0.503910000000     0.411780000000     0.759230000000    -0.205421   
N143     N      0.002130000000     0.096070000000     0.753020000000    -0.183002   
N144     N      0.503570000000     0.161820000000     0.752410000000    -0.202994   
N145     N      0.844360000000     0.752430000000     0.002580000000    -0.184179   
N146     N      0.910050000000     0.752950000000     0.502370000000    -0.204152   
N147     N      0.594400000000     0.754380000000     0.503580000000    -0.178825   
N148     N      0.660100000000     0.754780000000     0.004270000000    -0.207333   
N149     N      0.756640000000     0.846580000000     0.507010000000    -0.180418   
N150     N      0.758420000000     0.912360000000     0.507020000000    -0.202397   
N151     N      0.749480000000     0.662100000000     0.500460000000    -0.179011   
N152     N      0.748600000000     0.596320000000     0.499870000000    -0.203817   
N153     N      0.752910000000     0.000660000000     0.345550000000    -0.183285   
N154     N      0.753780000000     0.999600000000     0.411270000000    -0.187624   
N155     N      0.752560000000     0.507830000000     0.095340000000    -0.181751   
N156     N      0.751730000000     0.006840000000     0.161060000000    -0.207412   
N157     N      0.002000000000     0.751740000000     0.345700000000    -0.182533   
N158     N      0.002880000000     0.751210000000     0.411420000000    -0.206192   
N159     N      0.504490000000     0.756210000000     0.095690000000    -0.180975   
N160     N      0.006100000000     0.756030000000     0.161410000000    -0.209366   
N161     N      0.594530000000     0.006880000000     0.253150000000    -0.185037   
N162     N      0.660280000000     0.507210000000     0.253220000000    -0.201225   
N163     N      0.844680000000     0.500930000000     0.256830000000    -0.181324   
N164     N      0.910350000000     0.001380000000     0.259140000000    -0.209176   
N165     N      0.503690000000     0.846150000000     0.257400000000    -0.18103    
N166     N      0.503910000000     0.911780000000     0.259230000000    -0.20474    
N167     N      0.002130000000     0.596070000000     0.253020000000    -0.183135   
N168     N      0.503570000000     0.661820000000     0.252410000000    -0.202992   
N169     N      0.844360000000     0.752430000000     0.502580000000    -0.181367   
N170     N      0.910050000000     0.752950000000     0.002370000000    -0.208192   
N171     N      0.594400000000     0.754380000000     0.003580000000    -0.183      
N172     N      0.660100000000     0.754780000000     0.504270000000    -0.204553   
N173     N      0.756640000000     0.846580000000     0.007010000000    -0.183252   
N174     N      0.758420000000     0.912360000000     0.007020000000    -0.206422   
N175     N      0.749480000000     0.662100000000     0.000460000000    -0.182833   
N176     N      0.748600000000     0.596320000000     0.999870000000    -0.19958    
N177     N      0.752910000000     0.000660000000     0.845550000000    -0.18328    
N178     N      0.753780000000     0.999600000000     0.911270000000    -0.187079   
N179     N      0.752560000000     0.507830000000     0.595340000000    -0.181858   
N180     N      0.751730000000     0.006840000000     0.661060000000    -0.207386   
N181     N      0.002000000000     0.751740000000     0.845700000000    -0.182486   
N182     N      0.002880000000     0.751210000000     0.911420000000    -0.205605   
N183     N      0.504490000000     0.756210000000     0.595690000000    -0.181058   
N184     N      0.006100000000     0.756030000000     0.661410000000    -0.20935    
N185     N      0.594530000000     0.006880000000     0.753150000000    -0.184978   
N186     N      0.660280000000     0.507210000000     0.753220000000    -0.201224   
N187     N      0.844680000000     0.500930000000     0.756830000000    -0.18131    
N188     N      0.910350000000     0.001380000000     0.759140000000    -0.209148   
N189     N      0.503690000000     0.846150000000     0.757400000000    -0.181016   
N190     N      0.503910000000     0.911780000000     0.759230000000    -0.204697   
N191     N      0.002130000000     0.596070000000     0.753020000000    -0.1831     
N192     N      0.503570000000     0.661820000000     0.752410000000    -0.202984   
O1       O      0.999820000000     0.047660000000     0.228050000000    -0.522181   
O2       O      0.501590000000     0.457760000000     0.231340000000    -0.555694   
O3       O      0.456450000000     0.000930000000     0.231220000000    -0.556493   
O4       O      0.046320000000     0.502970000000     0.228220000000    -0.542502   
O5       O      0.048230000000     0.007040000000     0.280960000000    -0.543606   
O6       O      0.458510000000     0.504080000000     0.284040000000    -0.53668    
O7       O      0.005490000000     0.459950000000     0.284120000000    -0.537543   
O8       O      0.502740000000     0.049690000000     0.280840000000    -0.54495    
O9       O      0.477470000000     0.209060000000     0.248550000000    -0.547875   
O10      O      0.477300000000     0.298750000000     0.255600000000    -0.55051    
O11      O      0.478590000000     0.257920000000     0.207840000000    -0.552332   
O12      O      0.476290000000     0.249930000000     0.297590000000    -0.541249   
O13      O      0.028950000000     0.254730000000     0.299010000000    -0.543112   
O14      O      0.031280000000     0.253100000000     0.209390000000    -0.533115   
O15      O      0.030220000000     0.298870000000     0.254700000000    -0.546977   
O16      O      0.029960000000     0.209000000000     0.255280000000    -0.526546   
O17      O      0.296470000000     0.475890000000     0.252340000000    -0.546699   
O18      O      0.206440000000     0.479130000000     0.251110000000    -0.540977   
O19      O      0.251310000000     0.478980000000     0.207380000000    -0.539484   
O20      O      0.250280000000     0.475880000000     0.297170000000    -0.544418   
O21      O      0.253870000000     0.028670000000     0.299230000000    -0.540539   
O22      O      0.254530000000     0.031780000000     0.209310000000    -0.545574   
O23      O      0.208660000000     0.031920000000     0.254650000000    -0.530053   
O24      O      0.298350000000     0.028700000000     0.255550000000    -0.552484   
O25      O      0.279640000000     0.507450000000     0.048360000000    -0.549978   
O26      O      0.279700000000     0.005960000000     0.458390000000    -0.538922   
O27      O      0.277150000000     0.050790000000     0.003240000000    -0.563059   
O28      O      0.282310000000     0.461100000000     0.503540000000    -0.5348     
O29      O      0.229650000000     0.458020000000     0.007900000000    -0.545299   
O30      O      0.224540000000     0.047490000000     0.498410000000    -0.527994   
O31      O      0.227430000000     0.497740000000     0.458510000000    -0.529024   
O32      O      0.226700000000     0.006190000000     0.047850000000    -0.549248   
O33      O      0.505110000000     0.228710000000     0.049090000000    -0.551676   
O34      O      0.999490000000     0.226030000000     0.459400000000    -0.521867   
O35      O      0.047140000000     0.227610000000     0.002730000000    -0.54259    
O36      O      0.457340000000     0.227170000000     0.507140000000    -0.552141   
O37      O      0.457050000000     0.279650000000     0.000050000000    -0.539928   
O38      O      0.046830000000     0.280550000000     0.503780000000    -0.540437   
O39      O      0.504180000000     0.278760000000     0.457790000000    -0.531402   
O40      O      0.999830000000     0.281360000000     0.047570000000    -0.525018   
O41      O      0.253390000000     0.208430000000     0.028120000000    -0.544647   
O42      O      0.251450000000     0.298270000000     0.031670000000    -0.545649   
O43      O      0.207450000000     0.251830000000     0.030250000000    -0.53486    
O44      O      0.297300000000     0.253250000000     0.029570000000    -0.549649   
O45      O      0.296670000000     0.252810000000     0.476660000000    -0.549037   
O46      O      0.207020000000     0.259440000000     0.477870000000    -0.546674   
O47      O      0.255920000000     0.300260000000     0.479000000000    -0.548579   
O48      O      0.247870000000     0.210620000000     0.475570000000    -0.542332   
O49      O      0.999820000000     0.047660000000     0.728050000000    -0.522114   
O50      O      0.501590000000     0.457760000000     0.731340000000    -0.555598   
O51      O      0.456450000000     0.000930000000     0.731220000000    -0.556406   
O52      O      0.046320000000     0.502970000000     0.728220000000    -0.542402   
O53      O      0.048230000000     0.007040000000     0.780960000000    -0.543491   
O54      O      0.458510000000     0.504080000000     0.784040000000    -0.536529   
O55      O      0.005490000000     0.459950000000     0.784120000000    -0.537391   
O56      O      0.502740000000     0.049690000000     0.780840000000    -0.544832   
O57      O      0.477470000000     0.209060000000     0.748550000000    -0.54784    
O58      O      0.477300000000     0.298750000000     0.755600000000    -0.550468   
O59      O      0.478590000000     0.257920000000     0.707840000000    -0.552312   
O60      O      0.476290000000     0.249930000000     0.797590000000    -0.541163   
O61      O      0.028950000000     0.254730000000     0.799000000000    -0.543216   
O62      O      0.031280000000     0.253100000000     0.709390000000    -0.533163   
O63      O      0.030220000000     0.298870000000     0.754700000000    -0.546997   
O64      O      0.029960000000     0.209000000000     0.755280000000    -0.526595   
O65      O      0.296470000000     0.475890000000     0.752340000000    -0.546662   
O66      O      0.206440000000     0.479130000000     0.751110000000    -0.540965   
O67      O      0.251310000000     0.478980000000     0.707380000000    -0.539479   
O68      O      0.250280000000     0.475880000000     0.797170000000    -0.54438    
O69      O      0.253870000000     0.028670000000     0.799230000000    -0.540488   
O70      O      0.254530000000     0.031780000000     0.709310000000    -0.545563   
O71      O      0.208660000000     0.031920000000     0.754650000000    -0.530048   
O72      O      0.298350000000     0.028700000000     0.755560000000    -0.55245    
O73      O      0.279640000000     0.507450000000     0.548360000000    -0.551043   
O74      O      0.279700000000     0.005960000000     0.958390000000    -0.532762   
O75      O      0.277150000000     0.050790000000     0.503240000000    -0.556095   
O76      O      0.282310000000     0.461100000000     0.003540000000    -0.536456   
O77      O      0.229650000000     0.458020000000     0.507900000000    -0.546238   
O78      O      0.224540000000     0.047490000000     0.998410000000    -0.522285   
O79      O      0.227430000000     0.497740000000     0.958510000000    -0.521804   
O80      O      0.226700000000     0.006190000000     0.547850000000    -0.551183   
O81      O      0.505110000000     0.228710000000     0.549090000000    -0.553192   
O82      O      0.999490000000     0.226030000000     0.959400000000    -0.515085   
O83      O      0.047140000000     0.227610000000     0.502730000000    -0.542095   
O84      O      0.457340000000     0.227170000000     0.007140000000    -0.55249    
O85      O      0.457050000000     0.279650000000     0.500050000000    -0.538461   
O86      O      0.046830000000     0.280550000000     0.003770000000    -0.541833   
O87      O      0.504180000000     0.278760000000     0.957790000000    -0.524828   
O88      O      0.999830000000     0.281360000000     0.547570000000    -0.526324   
O89      O      0.253390000000     0.208430000000     0.528120000000    -0.547625   
O90      O      0.251450000000     0.298270000000     0.531670000000    -0.548491   
O91      O      0.207450000000     0.251830000000     0.530250000000    -0.537833   
O92      O      0.297300000000     0.253250000000     0.529570000000    -0.552511   
O93      O      0.296670000000     0.252810000000     0.976660000000    -0.541903   
O94      O      0.207020000000     0.259440000000     0.977870000000    -0.539428   
O95      O      0.255920000000     0.300260000000     0.979000000000    -0.541708   
O96      O      0.247870000000     0.210620000000     0.975570000000    -0.535108   
O97      O      0.999820000000     0.547660000000     0.228050000000    -0.523795   
O98      O      0.501590000000     0.957760000000     0.231340000000    -0.547696   
O99      O      0.456450000000     0.500930000000     0.231220000000    -0.555061   
O100     O      0.046320000000     0.002970000000     0.228220000000    -0.544203   
O101     O      0.048230000000     0.507040000000     0.280960000000    -0.543071   
O102     O      0.458510000000     0.004080000000     0.284040000000    -0.537204   
O103     O      0.005490000000     0.959950000000     0.284120000000    -0.529467   
O104     O      0.502740000000     0.549690000000     0.280840000000    -0.546813   
O105     O      0.477470000000     0.709060000000     0.248550000000    -0.547874   
O106     O      0.477300000000     0.798750000000     0.255600000000    -0.550402   
O107     O      0.478590000000     0.757920000000     0.207840000000    -0.552283   
O108     O      0.476290000000     0.749930000000     0.297590000000    -0.541207   
O109     O      0.028950000000     0.754730000000     0.299010000000    -0.543111   
O110     O      0.031280000000     0.753100000000     0.209390000000    -0.533082   
O111     O      0.030220000000     0.798870000000     0.254700000000    -0.546917   
O112     O      0.029960000000     0.709000000000     0.255280000000    -0.526551   
O113     O      0.296470000000     0.975890000000     0.252340000000    -0.538058   
O114     O      0.206440000000     0.979130000000     0.251110000000    -0.53268    
O115     O      0.251310000000     0.978980000000     0.207380000000    -0.531203   
O116     O      0.250280000000     0.975880000000     0.297170000000    -0.535911   
O117     O      0.253870000000     0.528670000000     0.299230000000    -0.544041   
O118     O      0.254530000000     0.531780000000     0.209310000000    -0.548812   
O119     O      0.208660000000     0.531920000000     0.254650000000    -0.533427   
O120     O      0.298350000000     0.528700000000     0.255550000000    -0.556052   
O121     O      0.279640000000     0.007450000000     0.048360000000    -0.550267   
O122     O      0.279700000000     0.505960000000     0.458390000000    -0.543072   
O123     O      0.277150000000     0.550790000000     0.003240000000    -0.564858   
O124     O      0.282310000000     0.961100000000     0.503540000000    -0.526742   
O125     O      0.229650000000     0.958020000000     0.007900000000    -0.536318   
O126     O      0.224540000000     0.547490000000     0.498410000000    -0.530755   
O127     O      0.227430000000     0.997740000000     0.458510000000    -0.509733   
O128     O      0.226700000000     0.506190000000     0.047850000000    -0.549911   
O129     O      0.505110000000     0.728710000000     0.049090000000    -0.551567   
O130     O      0.999490000000     0.726030000000     0.459400000000    -0.521798   
O131     O      0.047140000000     0.727610000000     0.002730000000    -0.542491   
O132     O      0.457340000000     0.727170000000     0.507140000000    -0.552031   
O133     O      0.457050000000     0.779650000000     0.000050000000    -0.539747   
O134     O      0.046830000000     0.780550000000     0.503780000000    -0.540286   
O135     O      0.504180000000     0.778760000000     0.457790000000    -0.531268   
O136     O      0.999830000000     0.781360000000     0.047570000000    -0.524866   
O137     O      0.253390000000     0.708430000000     0.028120000000    -0.544557   
O138     O      0.251450000000     0.798270000000     0.031670000000    -0.545557   
O139     O      0.207450000000     0.751830000000     0.030250000000    -0.534836   
O140     O      0.297300000000     0.753250000000     0.029570000000    -0.549592   
O141     O      0.296670000000     0.752810000000     0.476660000000    -0.549012   
O142     O      0.207020000000     0.759440000000     0.477870000000    -0.54665    
O143     O      0.255920000000     0.800260000000     0.479000000000    -0.548527   
O144     O      0.247870000000     0.710620000000     0.475570000000    -0.542242   
O145     O      0.999820000000     0.547660000000     0.728050000000    -0.523727   
O146     O      0.501590000000     0.957760000000     0.731340000000    -0.547605   
O147     O      0.456450000000     0.500930000000     0.731220000000    -0.554974   
O148     O      0.046320000000     0.002970000000     0.728220000000    -0.544103   
O149     O      0.048230000000     0.507040000000     0.780960000000    -0.542957   
O150     O      0.458510000000     0.004080000000     0.784040000000    -0.537052   
O151     O      0.005490000000     0.959950000000     0.784120000000    -0.52933    
O152     O      0.502740000000     0.549690000000     0.780840000000    -0.546694   
O153     O      0.477470000000     0.709060000000     0.748550000000    -0.547838   
O154     O      0.477300000000     0.798750000000     0.755600000000    -0.550361   
O155     O      0.478590000000     0.757920000000     0.707840000000    -0.552264   
O156     O      0.476290000000     0.749930000000     0.797590000000    -0.541121   
O157     O      0.028950000000     0.754730000000     0.799000000000    -0.543216   
O158     O      0.031280000000     0.753100000000     0.709390000000    -0.53313    
O159     O      0.030220000000     0.798870000000     0.754700000000    -0.546937   
O160     O      0.029960000000     0.709000000000     0.755280000000    -0.526599   
O161     O      0.296470000000     0.975890000000     0.752340000000    -0.538031   
O162     O      0.206440000000     0.979130000000     0.751110000000    -0.532678   
O163     O      0.251310000000     0.978980000000     0.707380000000    -0.5312     
O164     O      0.250280000000     0.975880000000     0.797170000000    -0.535889   
O165     O      0.253870000000     0.528670000000     0.799230000000    -0.543984   
O166     O      0.254530000000     0.531780000000     0.709310000000    -0.548798   
O167     O      0.208660000000     0.531920000000     0.754650000000    -0.533419   
O168     O      0.298350000000     0.528700000000     0.755560000000    -0.556014   
O169     O      0.279640000000     0.007450000000     0.548360000000    -0.551328   
O170     O      0.279700000000     0.505960000000     0.958390000000    -0.536883   
O171     O      0.277150000000     0.550790000000     0.503240000000    -0.557891   
O172     O      0.282310000000     0.961100000000     0.003540000000    -0.52841    
O173     O      0.229650000000     0.958020000000     0.507900000000    -0.537235   
O174     O      0.224540000000     0.547490000000     0.998410000000    -0.525028   
O175     O      0.227430000000     0.997740000000     0.958510000000    -0.502611   
O176     O      0.226700000000     0.506190000000     0.547850000000    -0.551859   
O177     O      0.505110000000     0.728710000000     0.549090000000    -0.553082   
O178     O      0.999490000000     0.726030000000     0.959400000000    -0.515023   
O179     O      0.047140000000     0.727610000000     0.502730000000    -0.541995   
O180     O      0.457340000000     0.727170000000     0.007140000000    -0.552381   
O181     O      0.457050000000     0.779650000000     0.500050000000    -0.538281   
O182     O      0.046830000000     0.780550000000     0.003770000000    -0.541681   
O183     O      0.504180000000     0.778760000000     0.957790000000    -0.524705   
O184     O      0.999830000000     0.781360000000     0.547570000000    -0.526171   
O185     O      0.253390000000     0.708430000000     0.528120000000    -0.54753    
O186     O      0.251450000000     0.798270000000     0.531670000000    -0.548395   
O187     O      0.207450000000     0.751830000000     0.530250000000    -0.537804   
O188     O      0.297300000000     0.753250000000     0.529570000000    -0.552451   
O189     O      0.296670000000     0.752810000000     0.976660000000    -0.541888   
O190     O      0.207020000000     0.759440000000     0.977870000000    -0.539414   
O191     O      0.255920000000     0.800260000000     0.979000000000    -0.54167    
O192     O      0.247870000000     0.710620000000     0.975570000000    -0.535025   
O193     O      0.499820000000     0.047660000000     0.228050000000    -0.544331   
O194     O      0.001590000000     0.457760000000     0.231340000000    -0.554959   
O195     O      0.956450000000     0.000930000000     0.231220000000    -0.544885   
O196     O      0.546320000000     0.502970000000     0.228220000000    -0.545918   
O197     O      0.548230000000     0.007040000000     0.280960000000    -0.545861   
O198     O      0.958510000000     0.504080000000     0.284040000000    -0.5264     
O199     O      0.505490000000     0.459950000000     0.284120000000    -0.537121   
O200     O      0.002730000000     0.049690000000     0.280840000000    -0.542218   
O201     O      0.977470000000     0.209060000000     0.248550000000    -0.536753   
O202     O      0.977290000000     0.298750000000     0.255600000000    -0.539392   
O203     O      0.978590000000     0.257920000000     0.207840000000    -0.541492   
O204     O      0.976290000000     0.249930000000     0.297590000000    -0.5301     
O205     O      0.528950000000     0.254730000000     0.299010000000    -0.547835   
O206     O      0.531280000000     0.253100000000     0.209390000000    -0.537495   
O207     O      0.530220000000     0.298870000000     0.254700000000    -0.551396   
O208     O      0.529960000000     0.209000000000     0.255280000000    -0.531245   
O209     O      0.796470000000     0.475890000000     0.252340000000    -0.546573   
O210     O      0.706440000000     0.479130000000     0.251110000000    -0.540974   
O211     O      0.751310000000     0.478980000000     0.207380000000    -0.539438   
O212     O      0.750280000000     0.475880000000     0.297170000000    -0.544351   
O213     O      0.753870000000     0.028670000000     0.299230000000    -0.540531   
O214     O      0.754530000000     0.031780000000     0.209310000000    -0.545511   
O215     O      0.708660000000     0.031920000000     0.254650000000    -0.530039   
O216     O      0.798350000000     0.028700000000     0.255550000000    -0.552397   
O217     O      0.779640000000     0.507450000000     0.048360000000    -0.54973    
O218     O      0.779700000000     0.005960000000     0.458390000000    -0.538708   
O219     O      0.777150000000     0.050790000000     0.003240000000    -0.562829   
O220     O      0.782310000000     0.461100000000     0.503540000000    -0.534564   
O221     O      0.729650000000     0.458020000000     0.007900000000    -0.545176   
O222     O      0.724540000000     0.047490000000     0.498410000000    -0.527855   
O223     O      0.727430000000     0.497740000000     0.458510000000    -0.528925   
O224     O      0.726700000000     0.006190000000     0.047850000000    -0.549088   
O225     O      0.005110000000     0.228710000000     0.049090000000    -0.546005   
O226     O      0.499490000000     0.226030000000     0.459400000000    -0.544409   
O227     O      0.547140000000     0.227610000000     0.002730000000    -0.546157   
O228     O      0.957340000000     0.227170000000     0.507140000000    -0.540517   
O229     O      0.957050000000     0.279650000000     0.000050000000    -0.528492   
O230     O      0.546830000000     0.280550000000     0.503780000000    -0.543952   
O231     O      0.004180000000     0.278760000000     0.457790000000    -0.525872   
O232     O      0.499830000000     0.281360000000     0.047570000000    -0.547224   
O233     O      0.753390000000     0.208430000000     0.028120000000    -0.544615   
O234     O      0.751450000000     0.298270000000     0.031670000000    -0.545581   
O235     O      0.707450000000     0.251830000000     0.030250000000    -0.534914   
O236     O      0.797300000000     0.253250000000     0.029570000000    -0.54965    
O237     O      0.796670000000     0.252810000000     0.476660000000    -0.549076   
O238     O      0.707020000000     0.259440000000     0.477870000000    -0.546733   
O239     O      0.755910000000     0.300260000000     0.479000000000    -0.548578   
O240     O      0.747870000000     0.210620000000     0.475570000000    -0.542286   
O241     O      0.499820000000     0.047660000000     0.728050000000    -0.544239   
O242     O      0.001590000000     0.457760000000     0.731340000000    -0.554865   
O243     O      0.956450000000     0.000930000000     0.731220000000    -0.544808   
O244     O      0.546320000000     0.502970000000     0.728220000000    -0.545814   
O245     O      0.548230000000     0.007040000000     0.780960000000    -0.545743   
O246     O      0.958510000000     0.504080000000     0.784040000000    -0.526268   
O247     O      0.505490000000     0.459950000000     0.784120000000    -0.53697    
O248     O      0.002730000000     0.049690000000     0.780840000000    -0.542104   
O249     O      0.977470000000     0.209060000000     0.748550000000    -0.536732   
O250     O      0.977290000000     0.298750000000     0.755600000000    -0.539366   
O251     O      0.978590000000     0.257920000000     0.707840000000    -0.541479   
O252     O      0.976290000000     0.249930000000     0.797590000000    -0.530039   
O253     O      0.528950000000     0.254730000000     0.799000000000    -0.547932   
O254     O      0.531280000000     0.253100000000     0.709390000000    -0.537539   
O255     O      0.530220000000     0.298870000000     0.754700000000    -0.55141    
O256     O      0.529960000000     0.209000000000     0.755280000000    -0.531289   
O257     O      0.796470000000     0.475890000000     0.752340000000    -0.546536   
O258     O      0.706440000000     0.479130000000     0.751110000000    -0.540962   
O259     O      0.751310000000     0.478980000000     0.707380000000    -0.539433   
O260     O      0.750280000000     0.475880000000     0.797170000000    -0.544314   
O261     O      0.753870000000     0.028670000000     0.799230000000    -0.54048    
O262     O      0.754530000000     0.031780000000     0.709310000000    -0.5455     
O263     O      0.708660000000     0.031920000000     0.754650000000    -0.530034   
O264     O      0.798350000000     0.028700000000     0.755560000000    -0.552363   
O265     O      0.779640000000     0.507450000000     0.548360000000    -0.550794   
O266     O      0.779700000000     0.005960000000     0.958390000000    -0.532563   
O267     O      0.777150000000     0.050790000000     0.503240000000    -0.555878   
O268     O      0.782310000000     0.461100000000     0.003540000000    -0.536217   
O269     O      0.729650000000     0.458020000000     0.507900000000    -0.546112   
O270     O      0.724540000000     0.047490000000     0.998410000000    -0.522154   
O271     O      0.727430000000     0.497740000000     0.958510000000    -0.521716   
O272     O      0.726700000000     0.006190000000     0.547850000000    -0.551021   
O273     O      0.005110000000     0.228710000000     0.549090000000    -0.547502   
O274     O      0.499490000000     0.226030000000     0.959400000000    -0.537516   
O275     O      0.547140000000     0.227610000000     0.502730000000    -0.545671   
O276     O      0.957340000000     0.227170000000     0.007140000000    -0.540889   
O277     O      0.957050000000     0.279650000000     0.500050000000    -0.527011   
O278     O      0.546830000000     0.280550000000     0.003770000000    -0.545343   
O279     O      0.004180000000     0.278760000000     0.957790000000    -0.519321   
O280     O      0.499830000000     0.281360000000     0.547570000000    -0.54856    
O281     O      0.753390000000     0.208430000000     0.528120000000    -0.547589   
O282     O      0.751450000000     0.298270000000     0.531670000000    -0.548418   
O283     O      0.707450000000     0.251830000000     0.530250000000    -0.537885   
O284     O      0.797300000000     0.253250000000     0.529570000000    -0.552509   
O285     O      0.796670000000     0.252810000000     0.976660000000    -0.541958   
O286     O      0.707020000000     0.259440000000     0.977870000000    -0.539493   
O287     O      0.755910000000     0.300260000000     0.979000000000    -0.54172    
O288     O      0.747870000000     0.210620000000     0.975570000000    -0.535075   
O289     O      0.499820000000     0.547660000000     0.228050000000    -0.545961   
O290     O      0.001590000000     0.957760000000     0.231340000000    -0.546959   
O291     O      0.956450000000     0.500930000000     0.231220000000    -0.543446   
O292     O      0.546320000000     0.002970000000     0.228220000000    -0.547614   
O293     O      0.548230000000     0.507040000000     0.280960000000    -0.54533    
O294     O      0.958510000000     0.004080000000     0.284040000000    -0.526933   
O295     O      0.505490000000     0.959950000000     0.284120000000    -0.529045   
O296     O      0.002730000000     0.549690000000     0.280840000000    -0.544078   
O297     O      0.977470000000     0.709060000000     0.248550000000    -0.536763   
O298     O      0.977290000000     0.798750000000     0.255600000000    -0.539312   
O299     O      0.978590000000     0.757920000000     0.207840000000    -0.541463   
O300     O      0.976290000000     0.749930000000     0.297590000000    -0.530077   
O301     O      0.528950000000     0.754730000000     0.299010000000    -0.547827   
O302     O      0.531280000000     0.753100000000     0.209390000000    -0.537456   
O303     O      0.530220000000     0.798870000000     0.254700000000    -0.551327   
O304     O      0.529960000000     0.709000000000     0.255280000000    -0.531243   
O305     O      0.796470000000     0.975890000000     0.252340000000    -0.537957   
O306     O      0.706440000000     0.979130000000     0.251110000000    -0.53269    
O307     O      0.751310000000     0.978980000000     0.207380000000    -0.531176   
O308     O      0.750280000000     0.975880000000     0.297170000000    -0.535863   
O309     O      0.753870000000     0.528670000000     0.299230000000    -0.544025   
O310     O      0.754530000000     0.531780000000     0.209310000000    -0.548742   
O311     O      0.708660000000     0.531920000000     0.254650000000    -0.533408   
O312     O      0.798350000000     0.528700000000     0.255550000000    -0.555957   
O313     O      0.779640000000     0.007450000000     0.048360000000    -0.55002    
O314     O      0.779700000000     0.505960000000     0.458390000000    -0.542848   
O315     O      0.777150000000     0.550790000000     0.003240000000    -0.564623   
O316     O      0.782310000000     0.961100000000     0.503540000000    -0.526529   
O317     O      0.729650000000     0.958020000000     0.007900000000    -0.536212   
O318     O      0.724540000000     0.547490000000     0.498410000000    -0.53061    
O319     O      0.727430000000     0.997740000000     0.458510000000    -0.509673   
O320     O      0.726700000000     0.506190000000     0.047850000000    -0.549748   
O321     O      0.005110000000     0.728710000000     0.049090000000    -0.545908   
O322     O      0.499490000000     0.726030000000     0.459400000000    -0.544306   
O323     O      0.547140000000     0.727610000000     0.002730000000    -0.546053   
O324     O      0.957340000000     0.727170000000     0.507140000000    -0.540422   
O325     O      0.957050000000     0.779650000000     0.000050000000    -0.528337   
O326     O      0.546830000000     0.780550000000     0.503780000000    -0.543795   
O327     O      0.004180000000     0.778760000000     0.457790000000    -0.525748   
O328     O      0.499830000000     0.781360000000     0.047570000000    -0.547023   
O329     O      0.753390000000     0.708430000000     0.028120000000    -0.544524   
O330     O      0.751450000000     0.798270000000     0.031670000000    -0.54549    
O331     O      0.707450000000     0.751830000000     0.030250000000    -0.53489    
O332     O      0.797300000000     0.753250000000     0.029570000000    -0.549594   
O333     O      0.796670000000     0.752810000000     0.476660000000    -0.549051   
O334     O      0.707020000000     0.759440000000     0.477870000000    -0.546709   
O335     O      0.755910000000     0.800260000000     0.479000000000    -0.548526   
O336     O      0.747870000000     0.710620000000     0.475570000000    -0.542195   
O337     O      0.499820000000     0.547660000000     0.728050000000    -0.545868   
O338     O      0.001590000000     0.957760000000     0.731340000000    -0.54687    
O339     O      0.956450000000     0.500930000000     0.731220000000    -0.54337    
O340     O      0.546320000000     0.002970000000     0.728220000000    -0.54751    
O341     O      0.548230000000     0.507040000000     0.780960000000    -0.545212   
O342     O      0.958510000000     0.004080000000     0.784040000000    -0.526801   
O343     O      0.505490000000     0.959950000000     0.784120000000    -0.528908   
O344     O      0.002730000000     0.549690000000     0.780840000000    -0.543961   
O345     O      0.977470000000     0.709060000000     0.748550000000    -0.536742   
O346     O      0.977290000000     0.798750000000     0.755600000000    -0.539286   
O347     O      0.978590000000     0.757920000000     0.707840000000    -0.541449   
O348     O      0.976290000000     0.749930000000     0.797590000000    -0.530016   
O349     O      0.528950000000     0.754730000000     0.799000000000    -0.547924   
O350     O      0.531280000000     0.753100000000     0.709390000000    -0.5375     
O351     O      0.530220000000     0.798870000000     0.754700000000    -0.551342   
O352     O      0.529960000000     0.709000000000     0.755280000000    -0.531287   
O353     O      0.796470000000     0.975890000000     0.752340000000    -0.537931   
O354     O      0.706440000000     0.979130000000     0.751110000000    -0.532688   
O355     O      0.751310000000     0.978980000000     0.707380000000    -0.531174   
O356     O      0.750280000000     0.975880000000     0.797170000000    -0.535841   
O357     O      0.753870000000     0.528670000000     0.799230000000    -0.543969   
O358     O      0.754530000000     0.531780000000     0.709310000000    -0.548728   
O359     O      0.708660000000     0.531920000000     0.754650000000    -0.533399   
O360     O      0.798350000000     0.528700000000     0.755560000000    -0.555919   
O361     O      0.779640000000     0.007450000000     0.548360000000    -0.551079   
O362     O      0.779700000000     0.505960000000     0.958390000000    -0.536675   
O363     O      0.777150000000     0.550790000000     0.503240000000    -0.55767    
O364     O      0.782310000000     0.961100000000     0.003540000000    -0.528194   
O365     O      0.729650000000     0.958020000000     0.507900000000    -0.537126   
O366     O      0.724540000000     0.547490000000     0.998410000000    -0.524892   
O367     O      0.727430000000     0.997740000000     0.958510000000    -0.502563   
O368     O      0.726700000000     0.506190000000     0.547850000000    -0.551694   
O369     O      0.005110000000     0.728710000000     0.549090000000    -0.547403   
O370     O      0.499490000000     0.726030000000     0.959400000000    -0.537419   
O371     O      0.547140000000     0.727610000000     0.502730000000    -0.545566   
O372     O      0.957340000000     0.727170000000     0.007140000000    -0.540795   
O373     O      0.957050000000     0.779650000000     0.500050000000    -0.526856   
O374     O      0.546830000000     0.780550000000     0.003770000000    -0.545184   
O375     O      0.004180000000     0.778760000000     0.957790000000    -0.519208   
O376     O      0.499830000000     0.781360000000     0.547570000000    -0.548358   
O377     O      0.753390000000     0.708430000000     0.528120000000    -0.547493   
O378     O      0.751450000000     0.798270000000     0.531670000000    -0.548323   
O379     O      0.707450000000     0.751830000000     0.530250000000    -0.537857   
O380     O      0.797300000000     0.753250000000     0.529570000000    -0.55245    
O381     O      0.796670000000     0.752810000000     0.976660000000    -0.541943   
O382     O      0.707020000000     0.759440000000     0.977870000000    -0.539479   
O383     O      0.755910000000     0.800260000000     0.979000000000    -0.541683   
O384     O      0.747870000000     0.710620000000     0.975570000000    -0.534992   
V1       V      0.501080000000     0.002380000000     0.227570000000     1.39147    
V2       V      0.503670000000     0.505120000000     0.284610000000     1.43524    
V3       V      0.475230000000     0.253910000000     0.252430000000     1.39429    
V4       V      0.032250000000     0.253920000000     0.254480000000     1.42035    
V5       V      0.251170000000     0.475340000000     0.252000000000     1.41125    
V6       V      0.253810000000     0.032380000000     0.254580000000     1.4069     
V7       V      0.281870000000     0.006320000000     0.003380000000     1.39655    
V8       V      0.224920000000     0.002390000000     0.503150000000     1.39999    
V9       V      0.002240000000     0.225210000000     0.004550000000     1.37345    
V10      V      0.001900000000     0.282250000000     0.502370000000     1.39105    
V11      V      0.252390000000     0.253010000000     0.032060000000     1.39995    
V12      V      0.251810000000     0.255770000000     0.475110000000     1.41014    
V13      V      0.501080000000     0.002380000000     0.727570000000     1.39162    
V14      V      0.503670000000     0.505120000000     0.784610000000     1.43579    
V15      V      0.475230000000     0.253910000000     0.752430000000     1.39424    
V16      V      0.032250000000     0.253920000000     0.754480000000     1.4207     
V17      V      0.251170000000     0.475340000000     0.752000000000     1.41124    
V18      V      0.253810000000     0.032380000000     0.754580000000     1.40691    
V19      V      0.281870000000     0.006320000000     0.503380000000     1.40316    
V20      V      0.224920000000     0.002390000000     0.003150000000     1.38235    
V21      V      0.002240000000     0.225210000000     0.504550000000     1.38217    
V22      V      0.001900000000     0.282250000000     0.002370000000     1.38158    
V23      V      0.252390000000     0.253010000000     0.532060000000     1.41135    
V24      V      0.251810000000     0.255770000000     0.975110000000     1.41573    
V25      V      0.501080000000     0.502380000000     0.227570000000     1.4026     
V26      V      0.503670000000     0.005120000000     0.284610000000     1.42465    
V27      V      0.475230000000     0.753910000000     0.252430000000     1.39435    
V28      V      0.032250000000     0.753920000000     0.254480000000     1.42037    
V29      V      0.251170000000     0.975340000000     0.252000000000     1.4177     
V30      V      0.253810000000     0.532380000000     0.254580000000     1.42028    
V31      V      0.281870000000     0.506320000000     0.003380000000     1.40632    
V32      V      0.224920000000     0.502390000000     0.503150000000     1.42363    
V33      V      0.002240000000     0.725210000000     0.004550000000     1.37362    
V34      V      0.001900000000     0.782250000000     0.502370000000     1.3918     
V35      V      0.252390000000     0.753010000000     0.032060000000     1.40003    
V36      V      0.251810000000     0.755770000000     0.475110000000     1.41011    
V37      V      0.501080000000     0.502380000000     0.727570000000     1.40274    
V38      V      0.503670000000     0.005120000000     0.784610000000     1.42522    
V39      V      0.475230000000     0.753910000000     0.752430000000     1.39429    
V40      V      0.032250000000     0.753920000000     0.754480000000     1.42072    
V41      V      0.251170000000     0.975340000000     0.752000000000     1.41768    
V42      V      0.253810000000     0.532380000000     0.754580000000     1.42029    
V43      V      0.281870000000     0.506320000000     0.503380000000     1.41298    
V44      V      0.224920000000     0.502390000000     0.003150000000     1.40588    
V45      V      0.002240000000     0.725210000000     0.504550000000     1.38235    
V46      V      0.001900000000     0.782250000000     0.002370000000     1.38235    
V47      V      0.252390000000     0.753010000000     0.532060000000     1.41141    
V48      V      0.251810000000     0.755770000000     0.975110000000     1.41569    
V49      V      0.001080000000     0.002380000000     0.227570000000     1.36204    
V50      V      0.003670000000     0.505120000000     0.284610000000     1.42294    
V51      V      0.975230000000     0.253910000000     0.252430000000     1.40281    
V52      V      0.532250000000     0.253920000000     0.254480000000     1.43772    
V53      V      0.751170000000     0.475340000000     0.252000000000     1.41129    
V54      V      0.753810000000     0.032380000000     0.254580000000     1.40696    
V55      V      0.781870000000     0.006320000000     0.003380000000     1.39748    
V56      V      0.724920000000     0.002390000000     0.503150000000     1.40023    
V57      V      0.502240000000     0.225210000000     0.004550000000     1.40095    
V58      V      0.501900000000     0.282250000000     0.502370000000     1.41888    
V59      V      0.752390000000     0.253010000000     0.032060000000     1.40007    
V60      V      0.751810000000     0.255770000000     0.475110000000     1.41019    
V61      V      0.001080000000     0.002380000000     0.727570000000     1.3622     
V62      V      0.003670000000     0.505120000000     0.784610000000     1.42352    
V63      V      0.975230000000     0.253910000000     0.752430000000     1.40274    
V64      V      0.532250000000     0.253920000000     0.754480000000     1.43805    
V65      V      0.751170000000     0.475340000000     0.752000000000     1.41128    
V66      V      0.753810000000     0.032380000000     0.754580000000     1.40698    
V67      V      0.781870000000     0.006320000000     0.503380000000     1.40408    
V68      V      0.724920000000     0.002390000000     0.003150000000     1.38261    
V69      V      0.502240000000     0.225210000000     0.504550000000     1.40979    
V70      V      0.501900000000     0.282250000000     0.002370000000     1.40936    
V71      V      0.752390000000     0.253010000000     0.532060000000     1.41144    
V72      V      0.751810000000     0.255770000000     0.975110000000     1.41576    
V73      V      0.001080000000     0.502380000000     0.227570000000     1.37312    
V74      V      0.003670000000     0.005120000000     0.284610000000     1.41238    
V75      V      0.975230000000     0.753910000000     0.252430000000     1.40285    
V76      V      0.532250000000     0.753920000000     0.254480000000     1.43771    
V77      V      0.751170000000     0.975340000000     0.252000000000     1.41772    
V78      V      0.753810000000     0.532380000000     0.254580000000     1.42032    
V79      V      0.781870000000     0.506320000000     0.003380000000     1.40723    
V80      V      0.724920000000     0.502390000000     0.503150000000     1.42384    
V81      V      0.502240000000     0.725210000000     0.004550000000     1.4011     
V82      V      0.501900000000     0.782250000000     0.502370000000     1.41958    
V83      V      0.752390000000     0.753010000000     0.032060000000     1.40014    
V84      V      0.751810000000     0.755770000000     0.475110000000     1.41016    
V85      V      0.001080000000     0.502380000000     0.727570000000     1.37328    
V86      V      0.003670000000     0.005120000000     0.784610000000     1.41298    
V87      V      0.975230000000     0.753910000000     0.752430000000     1.40278    
V88      V      0.532250000000     0.753920000000     0.754480000000     1.43804    
V89      V      0.751170000000     0.975340000000     0.752000000000     1.4177     
V90      V      0.753810000000     0.532380000000     0.754580000000     1.42033    
V91      V      0.781870000000     0.506320000000     0.503380000000     1.41388    
V92      V      0.724920000000     0.502390000000     0.003150000000     1.4061     
V93      V      0.502240000000     0.725210000000     0.504550000000     1.40994    
V94      V      0.501900000000     0.782250000000     0.002370000000     1.41007    
V95      V      0.752390000000     0.753010000000     0.532060000000     1.4115     
V96      V      0.751810000000     0.755770000000     0.975110000000     1.41572    


