data_structure

_audit_creation_method RASPA-1.0
_audit_creation_date 2023-5-23
_audit_author_name 'Poobodin Mano'

_cell_length_a    31.3852
_cell_length_b    31.3852
_cell_length_c    27.93
_cell_angle_alpha 89.9977
_cell_angle_beta  90.0015
_cell_angle_gamma 89.9967
_cell_volume      27511.9

_symmetry_cell_setting          triclinic
_symmetry_space_group_name_Hall 'P 1'
_symmetry_space_group_name_H-M  'P 1'
_symmetry_Int_Tables_number     1

_symmetry_equiv_pos_as_xyz 'x,y,z'

loop_
_atom_site_label
_atom_site_type_symbol
_atom_site_fract_x
_atom_site_fract_y
_atom_site_fract_z
_atom_site_charge
C1       C      0.431400000000     0.307670000000     0.957550000000     0.477242   
C2       C      0.545290000000     0.307780000000     0.086240000000     0.477204   
C3       C      0.431380000000     0.307680000000     0.086230000000     0.477432   
C4       C      0.545300000000     0.307770000000     0.957570000000     0.477434   
C5       C      0.212030000000     0.640900000000     0.957520000000     0.477495   
C6       C      0.211990000000     0.527020000000     0.086220000000     0.477301   
C7       C      0.212020000000     0.640920000000     0.086190000000     0.47747    
C8       C      0.212000000000     0.527000000000     0.957530000000     0.47749    
C9       C      0.431570000000     0.860500000000     0.957530000000     0.477479   
C10      C      0.545450000000     0.860610000000     0.086220000000     0.477272   
C11      C      0.431550000000     0.860510000000     0.086200000000     0.4774     
C12      C      0.545470000000     0.860600000000     0.957550000000     0.477507   
C13      C      0.764820000000     0.527380000000     0.086250000000     0.477244   
C14      C      0.764870000000     0.641260000000     0.957550000000     0.477497   
C15      C      0.764830000000     0.527360000000     0.957580000000     0.47747    
C16      C      0.764850000000     0.641280000000     0.086240000000     0.477445   
C17      C      0.264820000000     0.140910000000     0.457530000000     0.477409   
C18      C      0.264860000000     0.027010000000     0.586210000000     0.477078   
C19      C      0.264830000000     0.140910000000     0.586200000000     0.477631   
C20      C      0.264860000000     0.027010000000     0.457520000000     0.477351   
C21      C      0.931560000000     0.807770000000     0.457540000000     0.476894   
C22      C      0.045470000000     0.807670000000     0.586210000000     0.476819   
C23      C      0.931570000000     0.807770000000     0.586210000000     0.477051   
C24      C      0.045460000000     0.807680000000     0.457530000000     0.477104   
C25      C      0.712030000000     0.027370000000     0.586240000000     0.477369   
C26      C      0.711990000000     0.141270000000     0.457560000000     0.477425   
C27      C      0.712030000000     0.027370000000     0.457570000000     0.477322   
C28      C      0.712000000000     0.141270000000     0.586250000000     0.477411   
C29      C      0.931390000000     0.360610000000     0.457560000000     0.476922   
C30      C      0.045290000000     0.360510000000     0.586230000000     0.476834   
C31      C      0.931400000000     0.360600000000     0.586240000000     0.47712    
C32      C      0.045290000000     0.360510000000     0.457560000000     0.477034   
C33      C      0.222740000000     0.397890000000     0.219220000000     0.477163   
C34      C      0.253970000000     0.270100000000     0.324610000000     0.477041   
C35      C      0.302230000000     0.318390000000     0.219210000000     0.477021   
C36      C      0.174470000000     0.349610000000     0.324620000000     0.477254   
C37      C      0.802240000000     0.349900000000     0.324570000000     0.477295   
C38      C      0.674470000000     0.318680000000     0.219170000000     0.477144   
C39      C      0.722750000000     0.270410000000     0.324570000000     0.477259   
C40      C      0.753970000000     0.398190000000     0.219170000000     0.477132   
C41      C      0.674490000000     0.318660000000     0.824650000000     0.477023   
C42      C      0.802260000000     0.349890000000     0.719250000000     0.477174   
C43      C      0.753990000000     0.398170000000     0.824650000000     0.477291   
C44      C      0.722770000000     0.270400000000     0.719250000000     0.477084   
C45      C      0.802360000000     0.818680000000     0.324620000000     0.477245   
C46      C      0.674580000000     0.849910000000     0.219240000000     0.477141   
C47      C      0.722860000000     0.898190000000     0.324640000000     0.477035   
C48      C      0.754080000000     0.770420000000     0.219220000000     0.477168   
C49      C      0.722880000000     0.898170000000     0.719160000000     0.477051   
C50      C      0.754120000000     0.770390000000     0.824540000000     0.477188   
C51      C      0.802380000000     0.818660000000     0.719150000000     0.477328   
C52      C      0.674620000000     0.849880000000     0.824560000000     0.477157   
C53      C      0.174590000000     0.818390000000     0.324520000000     0.47723    
C54      C      0.302360000000     0.849610000000     0.219120000000     0.477146   
C55      C      0.254080000000     0.897880000000     0.324520000000     0.477003   
C56      C      0.222860000000     0.770110000000     0.219120000000     0.477187   
C57      C      0.302390000000     0.849600000000     0.824600000000     0.477151   
C58      C      0.174610000000     0.818380000000     0.719200000000     0.47726    
C59      C      0.222880000000     0.770090000000     0.824600000000     0.477112   
C60      C      0.254110000000     0.897870000000     0.719200000000     0.477256   
C61      C      0.302270000000     0.318360000000     0.824530000000     0.477132   
C62      C      0.174490000000     0.349600000000     0.719150000000     0.4774     
C63      C      0.222770000000     0.397860000000     0.824550000000     0.47725    
C64      C      0.253990000000     0.270090000000     0.719130000000     0.47703    
C65      C      0.104870000000     0.392090000000     0.625350000000     0.0314989  
C66      C      0.078440000000     0.325560000000     0.651320000000     0.0320608  
C67      C      0.110070000000     0.323720000000     0.686220000000     0.0312658  
C68      C      0.138610000000     0.388630000000     0.657970000000     0.0316998  
C69      C      0.078430000000     0.325570000000     0.392460000000     0.0320898  
C70      C      0.104860000000     0.392090000000     0.418430000000     0.0315173  
C71      C      0.138590000000     0.388640000000     0.385800000000     0.0316648  
C72      C      0.110050000000     0.323730000000     0.357570000000     0.03122    
C73      C      0.871860000000     0.392270000000     0.418430000000     0.0313412  
C74      C      0.898230000000     0.325730000000     0.392440000000     0.0317227  
C75      C      0.866620000000     0.323950000000     0.357520000000     0.0310101  
C76      C      0.838130000000     0.388870000000     0.385790000000     0.0314634  
C77      C      0.898240000000     0.325730000000     0.651370000000     0.0317454  
C78      C      0.871870000000     0.392270000000     0.625380000000     0.0313626  
C79      C      0.838140000000     0.388870000000     0.658030000000     0.0314409  
C80      C      0.866640000000     0.323940000000     0.686290000000     0.0309912  
C81      C      0.680350000000     0.200810000000     0.625390000000     0.0313624  
C82      C      0.746890000000     0.174410000000     0.651370000000     0.0318784  
C83      C      0.748700000000     0.206020000000     0.686280000000     0.0311023  
C84      C      0.683780000000     0.234530000000     0.658040000000     0.0315767  
C85      C      0.746880000000     0.174420000000     0.392440000000     0.0319158  
C86      C      0.680340000000     0.200810000000     0.418430000000     0.0313543  
C87      C      0.683760000000     0.234530000000     0.385780000000     0.0315563  
C88      C      0.748680000000     0.206020000000     0.357530000000     0.0310419  
C89      C      0.680410000000     0.967800000000     0.418460000000     0.0314564  
C90      C      0.746940000000     0.994210000000     0.392470000000     0.0323316  
C91      C      0.748760000000     0.962590000000     0.357570000000     0.0309884  
C92      C      0.683850000000     0.934070000000     0.385830000000     0.0315207  
C93      C      0.746950000000     0.994210000000     0.651340000000     0.032382   
C94      C      0.680420000000     0.967800000000     0.625350000000     0.031432   
C95      C      0.683870000000     0.934060000000     0.657980000000     0.0316076  
C96      C      0.748780000000     0.962590000000     0.686230000000     0.0309258  
C97      C      0.078610000000     0.842550000000     0.392400000000     0.0320813  
C98      C      0.104990000000     0.776010000000     0.418390000000     0.0315579  
C99      C      0.138710000000     0.779410000000     0.385740000000     0.0316259  
C100     C      0.110210000000     0.844340000000     0.357480000000     0.0312521  
C101     C      0.078620000000     0.842540000000     0.651330000000     0.0321744  
C102     C      0.105000000000     0.776000000000     0.625340000000     0.0314728  
C103     C      0.138730000000     0.779410000000     0.657980000000     0.0317121  
C104     C      0.110230000000     0.844330000000     0.686250000000     0.0312389  
C105     C      0.898420000000     0.842710000000     0.651310000000     0.0317796  
C106     C      0.871990000000     0.776190000000     0.625340000000     0.0312965  
C107     C      0.838260000000     0.779640000000     0.657960000000     0.0314604  
C108     C      0.866800000000     0.844550000000     0.686200000000     0.0309915  
C109     C      0.898410000000     0.842720000000     0.392450000000     0.0317136  
C110     C      0.871980000000     0.776190000000     0.418420000000     0.0312558  
C111     C      0.838250000000     0.779650000000     0.385790000000     0.0315342  
C112     C      0.866780000000     0.844560000000     0.357550000000     0.0310177  
C113     C      0.229900000000     0.174070000000     0.392430000000     0.0319601  
C114     C      0.296430000000     0.200480000000     0.418410000000     0.0314151  
C115     C      0.292990000000     0.234210000000     0.385790000000     0.0315241  
C116     C      0.228070000000     0.205690000000     0.357540000000     0.0310807  
C117     C      0.229910000000     0.174060000000     0.651300000000     0.0319451  
C118     C      0.296440000000     0.200480000000     0.625310000000     0.0313875  
C119     C      0.293000000000     0.234210000000     0.657940000000     0.0315415  
C120     C      0.228090000000     0.205690000000     0.686200000000     0.0311717  
C121     C      0.296510000000     0.967470000000     0.625340000000     0.0315137  
C122     C      0.229970000000     0.993860000000     0.651330000000     0.0323634  
C123     C      0.228170000000     0.962260000000     0.686240000000     0.0310537  
C124     C      0.293090000000     0.933750000000     0.657990000000     0.0315534  
C125     C      0.296500000000     0.967470000000     0.418380000000     0.031448   
C126     C      0.229960000000     0.993870000000     0.392400000000     0.0324633  
C127     C      0.228150000000     0.962260000000     0.357490000000     0.0309924  
C128     C      0.293080000000     0.933750000000     0.385730000000     0.0315286  
C129     C      0.792980000000     0.434070000000     0.157990000000     0.0314512  
C130     C      0.728070000000     0.462600000000     0.186240000000     0.0310846  
C131     C      0.729900000000     0.494220000000     0.151350000000     0.0318509  
C132     C      0.796430000000     0.467810000000     0.125370000000     0.0312877  
C133     C      0.728150000000     0.706040000000     0.186260000000     0.0311083  
C134     C      0.793070000000     0.734540000000     0.158020000000     0.0314623  
C135     C      0.796490000000     0.700820000000     0.125370000000     0.0312952  
C136     C      0.729950000000     0.674430000000     0.151350000000     0.0318242  
C137     C      0.729980000000     0.674400000000     0.892420000000     0.0319371  
C138     C      0.796520000000     0.700790000000     0.918410000000     0.0313798  
C139     C      0.793100000000     0.734510000000     0.885760000000     0.0315385  
C140     C      0.728180000000     0.706010000000     0.857500000000     0.031128   
C141     C      0.796440000000     0.467790000000     0.918470000000     0.0314056  
C142     C      0.729910000000     0.494200000000     0.892480000000     0.0319187  
C143     C      0.728090000000     0.462580000000     0.857580000000     0.0311091  
C144     C      0.793000000000     0.434050000000     0.885840000000     0.0315485  
C145     C      0.578600000000     0.825750000000     0.151360000000     0.0319221  
C146     C      0.604970000000     0.892280000000     0.125360000000     0.0313766  
C147     C      0.638690000000     0.888880000000     0.158020000000     0.0315455  
C148     C      0.610210000000     0.823960000000     0.186280000000     0.0310946  
C149     C      0.398400000000     0.825570000000     0.151290000000     0.031938   
C150     C      0.371970000000     0.892090000000     0.125310000000     0.0313882  
C151     C      0.338240000000     0.888640000000     0.157940000000     0.0315466  
C152     C      0.366780000000     0.823730000000     0.186180000000     0.0310509  
C153     C      0.371990000000     0.892080000000     0.918400000000     0.0314744  
C154     C      0.398430000000     0.825560000000     0.892430000000     0.03196    
C155     C      0.366800000000     0.823720000000     0.857540000000     0.0311929  
C156     C      0.338260000000     0.888630000000     0.885770000000     0.0316055  
C157     C      0.578630000000     0.825730000000     0.892420000000     0.0320167  
C158     C      0.605000000000     0.892270000000     0.918420000000     0.031442   
C159     C      0.638730000000     0.888860000000     0.885770000000     0.031605   
C160     C      0.610240000000     0.823930000000     0.857510000000     0.0311037  
C161     C      0.180410000000     0.700490000000     0.125300000000     0.0314682  
C162     C      0.246940000000     0.674080000000     0.151290000000     0.031876   
C163     C      0.248760000000     0.705700000000     0.186180000000     0.0311788  
C164     C      0.183850000000     0.734230000000     0.157930000000     0.0315487  
C165     C      0.246870000000     0.493880000000     0.151350000000     0.0319104  
C166     C      0.180340000000     0.467490000000     0.125360000000     0.0314962  
C167     C      0.183750000000     0.433770000000     0.158010000000     0.0315688  
C168     C      0.248670000000     0.462270000000     0.186270000000     0.0311372  
C169     C      0.246900000000     0.493850000000     0.892420000000     0.0319379  
C170     C      0.180360000000     0.467460000000     0.918400000000     0.0315393  
C171     C      0.183780000000     0.433740000000     0.885750000000     0.0316932  
C172     C      0.248700000000     0.462240000000     0.857510000000     0.031226   
C173     C      0.246960000000     0.674060000000     0.892420000000     0.0318997  
C174     C      0.180430000000     0.700470000000     0.918400000000     0.0316095  
C175     C      0.183870000000     0.734210000000     0.885770000000     0.0316598  
C176     C      0.248780000000     0.705680000000     0.857530000000     0.031254   
C177     C      0.398220000000     0.342550000000     0.151350000000     0.0318816  
C178     C      0.371850000000     0.276010000000     0.125350000000     0.0313969  
C179     C      0.338120000000     0.279420000000     0.158000000000     0.0314694  
C180     C      0.366610000000     0.344350000000     0.186260000000     0.0311094  
C181     C      0.610050000000     0.344560000000     0.186230000000     0.0310937  
C182     C      0.638590000000     0.279650000000     0.158000000000     0.031529   
C183     C      0.604860000000     0.276190000000     0.125370000000     0.0313237  
C184     C      0.578430000000     0.342720000000     0.151340000000     0.0318433  
C185     C      0.610070000000     0.344550000000     0.857580000000     0.0310794  
C186     C      0.638620000000     0.279640000000     0.885830000000     0.0315529  
C187     C      0.604880000000     0.276190000000     0.918450000000     0.0315271  
C188     C      0.578450000000     0.342710000000     0.892480000000     0.0319602  
C189     C      0.398250000000     0.342530000000     0.892410000000     0.0320172  
C190     C      0.371880000000     0.275990000000     0.918410000000     0.0314582  
C191     C      0.338160000000     0.279390000000     0.885760000000     0.0315583  
C192     C      0.366650000000     0.344320000000     0.857490000000     0.0310951  
H1       H      0.103800000000     0.419610000000     0.601900000000     0.031629   
H2       H      0.055560000000     0.299700000000     0.649630000000     0.0311978  
H3       H      0.110810000000     0.296040000000     0.709460000000     0.031809   
H4       H      0.162210000000     0.413850000000     0.659100000000     0.0318808  
H5       H      0.055550000000     0.299700000000     0.394160000000     0.0311635  
H6       H      0.103790000000     0.419610000000     0.441890000000     0.0316152  
H7       H      0.162190000000     0.413860000000     0.384670000000     0.0318897  
H8       H      0.110790000000     0.296050000000     0.334320000000     0.0317794  
H9       H      0.872940000000     0.419780000000     0.441910000000     0.0313154  
H10      H      0.921090000000     0.299840000000     0.394130000000     0.0303862  
H11      H      0.865870000000     0.296280000000     0.334270000000     0.0313809  
H12      H      0.814550000000     0.414110000000     0.384660000000     0.0317332  
H13      H      0.921100000000     0.299840000000     0.649680000000     0.0303996  
H14      H      0.872950000000     0.419780000000     0.601910000000     0.0313099  
H15      H      0.814570000000     0.414110000000     0.659160000000     0.03175    
H16      H      0.865890000000     0.296270000000     0.709550000000     0.0314242  
H17      H      0.652840000000     0.199730000000     0.601920000000     0.0314254  
H18      H      0.772780000000     0.151550000000     0.649670000000     0.0306268  
H19      H      0.776380000000     0.206770000000     0.709540000000     0.031482   
H20      H      0.658540000000     0.258110000000     0.659170000000     0.0317806  
H21      H      0.772770000000     0.151550000000     0.394140000000     0.0306024  
H22      H      0.652830000000     0.199730000000     0.441890000000     0.0314181  
H23      H      0.658520000000     0.258110000000     0.384640000000     0.031787   
H24      H      0.776350000000     0.206770000000     0.334270000000     0.0314624  
H25      H      0.652900000000     0.968880000000     0.441920000000     0.0314969  
H26      H      0.772810000000     0.017090000000     0.394150000000     0.0303064  
H27      H      0.776440000000     0.961850000000     0.334320000000     0.0315532  
H28      H      0.658630000000     0.910480000000     0.384710000000     0.0318235  
H29      H      0.772820000000     0.017090000000     0.649650000000     0.0303193  
H30      H      0.652910000000     0.968880000000     0.601900000000     0.0315071  
H31      H      0.658640000000     0.910470000000     0.659100000000     0.0318075  
H32      H      0.776460000000     0.961840000000     0.709480000000     0.0316212  
H33      H      0.055750000000     0.868440000000     0.394090000000     0.0311963  
H34      H      0.103900000000     0.748500000000     0.441860000000     0.0316019  
H35      H      0.162280000000     0.754170000000     0.384610000000     0.0318852  
H36      H      0.110970000000     0.872010000000     0.334220000000     0.0318131  
H37      H      0.055760000000     0.868440000000     0.649640000000     0.0312018  
H38      H      0.103910000000     0.748500000000     0.601860000000     0.0316331  
H39      H      0.162300000000     0.754170000000     0.659110000000     0.0318726  
H40      H      0.110990000000     0.872000000000     0.709500000000     0.0318566  
H41      H      0.921310000000     0.868580000000     0.649610000000     0.0304357  
H42      H      0.873060000000     0.748670000000     0.601880000000     0.0313352  
H43      H      0.814660000000     0.754420000000     0.659100000000     0.0317518  
H44      H      0.866060000000     0.872230000000     0.709450000000     0.0314635  
H45      H      0.921290000000     0.868580000000     0.394140000000     0.030427   
H46      H      0.873060000000     0.748670000000     0.441880000000     0.0313519  
H47      H      0.814650000000     0.754430000000     0.384670000000     0.031721   
H48      H      0.866040000000     0.872240000000     0.334310000000     0.0314073  
H49      H      0.204030000000     0.151190000000     0.394120000000     0.0308267  
H50      H      0.323940000000     0.199400000000     0.441880000000     0.0314192  
H51      H      0.318210000000     0.257810000000     0.384670000000     0.0318026  
H52      H      0.200400000000     0.206440000000     0.334290000000     0.0316944  
H53      H      0.204040000000     0.151190000000     0.649610000000     0.0308478  
H54      H      0.323950000000     0.199400000000     0.601850000000     0.0314224  
H55      H      0.318220000000     0.257800000000     0.659060000000     0.0317974  
H56      H      0.200410000000     0.206430000000     0.709450000000     0.0316974  
H57      H      0.324020000000     0.968550000000     0.601880000000     0.0314866  
H58      H      0.204090000000     0.016730000000     0.649630000000     0.0305596  
H59      H      0.200500000000     0.961510000000     0.709500000000     0.0318257  
H60      H      0.318330000000     0.910170000000     0.659120000000     0.0318203  
H61      H      0.324010000000     0.968550000000     0.441840000000     0.0314968  
H62      H      0.204070000000     0.016730000000     0.394100000000     0.030512   
H63      H      0.200480000000     0.961510000000     0.334230000000     0.0317953  
H64      H      0.318310000000     0.910170000000     0.384600000000     0.0318244  
H65      H      0.818210000000     0.410470000000     0.159120000000     0.031561   
H66      H      0.700390000000     0.461860000000     0.209490000000     0.0315645  
H67      H      0.704020000000     0.517100000000     0.149660000000     0.0307052  
H68      H      0.823940000000     0.468880000000     0.101910000000     0.0311453  
H69      H      0.700470000000     0.706790000000     0.209520000000     0.0315556  
H70      H      0.818300000000     0.758120000000     0.159150000000     0.0315663  
H71      H      0.824000000000     0.699740000000     0.101910000000     0.0311393  
H72      H      0.704070000000     0.651560000000     0.149650000000     0.0307146  
H73      H      0.704090000000     0.651540000000     0.894120000000     0.0307832  
H74      H      0.824020000000     0.699710000000     0.941880000000     0.0313887  
H75      H      0.818340000000     0.758090000000     0.884620000000     0.031695   
H76      H      0.700510000000     0.706760000000     0.834240000000     0.0316028  
H77      H      0.823950000000     0.468860000000     0.941940000000     0.031372   
H78      H      0.704040000000     0.517080000000     0.894160000000     0.0307899  
H79      H      0.700410000000     0.461840000000     0.834330000000     0.0316034  
H80      H      0.818220000000     0.410450000000     0.884720000000     0.0316817  
H81      H      0.555750000000     0.799850000000     0.149670000000     0.0307103  
H82      H      0.603880000000     0.919790000000     0.101890000000     0.0313235  
H83      H      0.662270000000     0.914120000000     0.159140000000     0.0317227  
H84      H      0.610960000000     0.796290000000     0.209540000000     0.0315781  
H85      H      0.421290000000     0.799700000000     0.149600000000     0.0307142  
H86      H      0.373040000000     0.919610000000     0.101860000000     0.0313757  
H87      H      0.314630000000     0.913860000000     0.159070000000     0.0318202  
H88      H      0.366040000000     0.796050000000     0.209430000000     0.0315942  
H89      H      0.373060000000     0.919600000000     0.941850000000     0.0316204  
H90      H      0.421310000000     0.799690000000     0.894130000000     0.0308031  
H91      H      0.366070000000     0.796040000000     0.834300000000     0.0315991  
H92      H      0.314660000000     0.913850000000     0.884640000000     0.0319516  
H93      H      0.555770000000     0.799830000000     0.894120000000     0.0307853  
H94      H      0.603910000000     0.919770000000     0.941880000000     0.0315693  
H95      H      0.662300000000     0.914100000000     0.884650000000     0.0318502  
H96      H      0.611000000000     0.796260000000     0.834250000000     0.0316285  
H97      H      0.152900000000     0.699410000000     0.101840000000     0.0315174  
H98      H      0.272810000000     0.651200000000     0.149610000000     0.0307372  
H99      H      0.276440000000     0.706440000000     0.209440000000     0.031579   
H100     H      0.158630000000     0.757820000000     0.159050000000     0.0319527  
H101     H      0.272760000000     0.516740000000     0.149650000000     0.0307303  
H102     H      0.152830000000     0.468570000000     0.101890000000     0.0315064  
H103     H      0.158510000000     0.410190000000     0.159150000000     0.0319438  
H104     H      0.276340000000     0.461520000000     0.209520000000     0.0315813  
H105     H      0.272780000000     0.516710000000     0.894120000000     0.030812   
H106     H      0.152850000000     0.468550000000     0.941860000000     0.0317616  
H107     H      0.158550000000     0.410160000000     0.884620000000     0.0320509  
H108     H      0.276380000000     0.461490000000     0.834250000000     0.0316084  
H109     H      0.272830000000     0.651180000000     0.894120000000     0.0308268  
H110     H      0.152910000000     0.699390000000     0.941860000000     0.0317499  
H111     H      0.158640000000     0.757800000000     0.884650000000     0.0320631  
H112     H      0.276460000000     0.706420000000     0.834280000000     0.0316011  
H113     H      0.421080000000     0.368440000000     0.149660000000     0.0307158  
H114     H      0.372940000000     0.248510000000     0.101880000000     0.031308   
H115     H      0.314550000000     0.254180000000     0.159120000000     0.0317713  
H116     H      0.365860000000     0.372020000000     0.209520000000     0.0315745  
H117     H      0.610790000000     0.372240000000     0.209480000000     0.0315802  
H118     H      0.662200000000     0.254430000000     0.159130000000     0.0316802  
H119     H      0.603790000000     0.248680000000     0.101920000000     0.0312969  
H120     H      0.555540000000     0.368590000000     0.149640000000     0.0307376  
H121     H      0.610810000000     0.372230000000     0.834340000000     0.0316302  
H122     H      0.662220000000     0.254420000000     0.884710000000     0.0318052  
H123     H      0.603820000000     0.248670000000     0.941910000000     0.0314965  
H124     H      0.555560000000     0.368580000000     0.894170000000     0.0308013  
H125     H      0.421110000000     0.368430000000     0.894100000000     0.0307862  
H126     H      0.372970000000     0.248490000000     0.941880000000     0.0315619  
H127     H      0.314590000000     0.254150000000     0.884630000000     0.0319005  
H128     H      0.365890000000     0.371990000000     0.834230000000     0.0316308  
N1       N      0.075890000000     0.359720000000     0.621040000000    -0.190007   
N2       N      0.140950000000     0.354460000000     0.688350000000    -0.189999   
N3       N      0.075880000000     0.359720000000     0.422750000000    -0.190101   
N4       N      0.140930000000     0.354470000000     0.355420000000    -0.189957   
N5       N      0.900800000000     0.359870000000     0.422750000000    -0.190292   
N6       N      0.835770000000     0.354720000000     0.355380000000    -0.190079   
N7       N      0.900810000000     0.359870000000     0.621060000000    -0.190292   
N8       N      0.835790000000     0.354710000000     0.688430000000    -0.190003   
N9       N      0.712750000000     0.171850000000     0.621060000000    -0.190324   
N10      N      0.717940000000     0.236870000000     0.688430000000    -0.189999   
N11      N      0.712740000000     0.171850000000     0.422740000000    -0.19031    
N12      N      0.717920000000     0.236880000000     0.355380000000    -0.190044   
N13      N      0.712790000000     0.996770000000     0.422760000000    -0.190176   
N14      N      0.718020000000     0.931720000000     0.355440000000    -0.189999   
N15      N      0.712800000000     0.996770000000     0.621050000000    -0.19019    
N16      N      0.718030000000     0.931720000000     0.688360000000    -0.189909   
N17      N      0.076040000000     0.808410000000     0.422710000000    -0.190116   
N18      N      0.141060000000     0.813570000000     0.355340000000    -0.189951   
N19      N      0.076050000000     0.808410000000     0.621030000000    -0.190072   
N20      N      0.141080000000     0.813560000000     0.688380000000    -0.189973   
N21      N      0.900970000000     0.808560000000     0.621020000000    -0.190259   
N22      N      0.835920000000     0.813810000000     0.688350000000    -0.190028   
N23      N      0.900960000000     0.808560000000     0.422740000000    -0.19025    
N24      N      0.835910000000     0.813820000000     0.355420000000    -0.19002    
N25      N      0.264050000000     0.171510000000     0.422720000000    -0.19025    
N26      N      0.258820000000     0.236560000000     0.355400000000    -0.189989   
N27      N      0.264060000000     0.171500000000     0.621010000000    -0.190308   
N28      N      0.258830000000     0.236560000000     0.688330000000    -0.190017   
N29      N      0.264120000000     0.996420000000     0.621030000000    -0.190131   
N30      N      0.258930000000     0.931400000000     0.688390000000    -0.189995   
N31      N      0.264100000000     0.996430000000     0.422700000000    -0.190213   
N32      N      0.258910000000     0.931410000000     0.355340000000    -0.189905   
N33      N      0.758810000000     0.431720000000     0.188380000000    -0.190107   
N34      N      0.764050000000     0.496780000000     0.121060000000    -0.190265   
N35      N      0.758910000000     0.736890000000     0.188410000000    -0.190063   
N36      N      0.764100000000     0.671860000000     0.121050000000    -0.190373   
N37      N      0.764120000000     0.671840000000     0.922730000000    -0.190291   
N38      N      0.758940000000     0.736860000000     0.855360000000    -0.190018   
N39      N      0.764060000000     0.496760000000     0.922780000000    -0.190272   
N40      N      0.758840000000     0.431710000000     0.855450000000    -0.190027   
N41      N      0.576030000000     0.859880000000     0.121050000000    -0.190275   
N42      N      0.641050000000     0.854730000000     0.188420000000    -0.190012   
N43      N      0.400950000000     0.859720000000     0.121000000000    -0.190313   
N44      N      0.335900000000     0.854470000000     0.188320000000    -0.189978   
N45      N      0.400980000000     0.859710000000     0.922720000000    -0.19025    
N46      N      0.335920000000     0.854450000000     0.855390000000    -0.190055   
N47      N      0.576060000000     0.859860000000     0.922730000000    -0.190229   
N48      N      0.641090000000     0.854700000000     0.855370000000    -0.189989   
N49      N      0.212790000000     0.671520000000     0.120990000000    -0.190289   
N50      N      0.218020000000     0.736570000000     0.188320000000    -0.189986   
N51      N      0.212730000000     0.496440000000     0.121040000000    -0.19029    
N52      N      0.217910000000     0.431420000000     0.188410000000    -0.190013   
N53      N      0.212750000000     0.496420000000     0.922720000000    -0.19027    
N54      N      0.217940000000     0.431390000000     0.855360000000    -0.190013   
N55      N      0.212800000000     0.671500000000     0.922710000000    -0.190205   
N56      N      0.218040000000     0.736550000000     0.855390000000    -0.190012   
N57      N      0.400800000000     0.308410000000     0.121040000000    -0.190364   
N58      N      0.335770000000     0.313580000000     0.188400000000    -0.189957   
N59      N      0.640930000000     0.313820000000     0.188380000000    -0.190036   
N60      N      0.575880000000     0.308560000000     0.121050000000    -0.190265   
N61      N      0.640960000000     0.313810000000     0.855450000000    -0.189989   
N62      N      0.575900000000     0.308550000000     0.922770000000    -0.190272   
N63      N      0.400820000000     0.308400000000     0.922720000000    -0.190202   
N64      N      0.335800000000     0.313550000000     0.855350000000    -0.189954   
O1       O      0.445020000000     0.271920000000     0.974110000000    -0.547498   
O2       O      0.531730000000     0.272000000000     0.069690000000    -0.548005   
O3       O      0.445010000000     0.271930000000     0.069680000000    -0.54802    
O4       O      0.531740000000     0.272000000000     0.974130000000    -0.54765    
O5       O      0.530450000000     0.343160000000     0.973520000000    -0.562405   
O6       O      0.446170000000     0.343090000000     0.070260000000    -0.562876   
O7       O      0.530440000000     0.343170000000     0.070280000000    -0.562809   
O8       O      0.446180000000     0.343090000000     0.973500000000    -0.56223    
O9       O      0.176270000000     0.627330000000     0.974070000000    -0.547549   
O10      O      0.176230000000     0.540620000000     0.069650000000    -0.547996   
O11      O      0.176260000000     0.627340000000     0.069630000000    -0.54805    
O12      O      0.176240000000     0.540600000000     0.974090000000    -0.547478   
O13      O      0.247400000000     0.541800000000     0.973500000000    -0.562308   
O14      O      0.247420000000     0.626090000000     0.070240000000    -0.56288    
O15      O      0.247400000000     0.541810000000     0.070260000000    -0.562715   
O16      O      0.247430000000     0.626080000000     0.973490000000    -0.562392   
O17      O      0.446410000000     0.825110000000     0.973490000000    -0.562283   
O18      O      0.530670000000     0.825190000000     0.070260000000    -0.562912   
O19      O      0.446400000000     0.825120000000     0.070250000000    -0.562823   
O20      O      0.530690000000     0.825190000000     0.973510000000    -0.562425   
O21      O      0.531850000000     0.896350000000     0.974090000000    -0.547565   
O22      O      0.445110000000     0.896280000000     0.069640000000    -0.548059   
O23      O      0.531830000000     0.896360000000     0.069660000000    -0.548116   
O24      O      0.445130000000     0.896270000000     0.974080000000    -0.547612   
O25      O      0.729420000000     0.542200000000     0.070280000000    -0.562905   
O26      O      0.729460000000     0.626470000000     0.973510000000    -0.562267   
O27      O      0.729430000000     0.542190000000     0.973530000000    -0.562392   
O28      O      0.729450000000     0.626480000000     0.070270000000    -0.562859   
O29      O      0.800610000000     0.627670000000     0.069680000000    -0.548236   
O30      O      0.800590000000     0.540940000000     0.974130000000    -0.547669   
O31      O      0.800620000000     0.627660000000     0.974120000000    -0.547777   
O32      O      0.800590000000     0.540950000000     0.069700000000    -0.548127   
O33      O      0.229420000000     0.126090000000     0.473490000000    -0.562905   
O34      O      0.229450000000     0.041810000000     0.570240000000    -0.562936   
O35      O      0.229430000000     0.126090000000     0.570240000000    -0.562997   
O36      O      0.229450000000     0.041810000000     0.473480000000    -0.562832   
O37      O      0.300610000000     0.040610000000     0.474080000000    -0.548363   
O38      O      0.300590000000     0.127330000000     0.569640000000    -0.548301   
O39      O      0.300620000000     0.040610000000     0.569650000000    -0.548154   
O40      O      0.300590000000     0.127330000000     0.474080000000    -0.548224   
O41      O      0.945120000000     0.772000000000     0.474090000000    -0.547827   
O42      O      0.031850000000     0.771920000000     0.569650000000    -0.54598    
O43      O      0.945130000000     0.772000000000     0.569660000000    -0.54784    
O44      O      0.031840000000     0.771930000000     0.474090000000    -0.546146   
O45      O      0.030680000000     0.843090000000     0.473490000000    -0.560866   
O46      O      0.946410000000     0.843160000000     0.570250000000    -0.562577   
O47      O      0.030680000000     0.843090000000     0.570250000000    -0.560691   
O48      O      0.946400000000     0.843170000000     0.473500000000    -0.562477   
O49      O      0.676270000000     0.040950000000     0.569690000000    -0.548406   
O50      O      0.676230000000     0.127670000000     0.474120000000    -0.548183   
O51      O      0.676260000000     0.040950000000     0.474130000000    -0.548261   
O52      O      0.676240000000     0.127670000000     0.569690000000    -0.548213   
O53      O      0.747410000000     0.126470000000     0.570280000000    -0.562892   
O54      O      0.747420000000     0.042190000000     0.473520000000    -0.5631     
O55      O      0.747400000000     0.126470000000     0.473520000000    -0.562965   
O56      O      0.747430000000     0.042190000000     0.570280000000    -0.563041   
O57      O      0.946170000000     0.325190000000     0.473520000000    -0.562444   
O58      O      0.030450000000     0.325110000000     0.570270000000    -0.560798   
O59      O      0.946180000000     0.325190000000     0.570280000000    -0.562621   
O60      O      0.030450000000     0.325120000000     0.473520000000    -0.56085    
O61      O      0.031720000000     0.396280000000     0.474110000000    -0.546143   
O62      O      0.945010000000     0.396350000000     0.569680000000    -0.54785    
O63      O      0.031730000000     0.396280000000     0.569680000000    -0.546126   
O64      O      0.945000000000     0.396360000000     0.474120000000    -0.547732   
O65      O      0.246990000000     0.402080000000     0.255970000000    -0.5583     
O66      O      0.271500000000     0.306190000000     0.334120000000    -0.552575   
O67      O      0.306430000000     0.342640000000     0.255960000000    -0.558318   
O68      O      0.210550000000     0.367140000000     0.334130000000    -0.552571   
O69      O      0.170270000000     0.325360000000     0.287880000000    -0.558257   
O70      O      0.266150000000     0.300860000000     0.209700000000    -0.552515   
O71      O      0.229710000000     0.265910000000     0.287870000000    -0.558267   
O72      O      0.205200000000     0.361810000000     0.209720000000    -0.552465   
O73      O      0.766160000000     0.367430000000     0.334080000000    -0.552624   
O74      O      0.670270000000     0.342940000000     0.255910000000    -0.558325   
O75      O      0.705210000000     0.306490000000     0.334080000000    -0.552502   
O76      O      0.729710000000     0.402380000000     0.255910000000    -0.558379   
O77      O      0.771500000000     0.362100000000     0.209660000000    -0.552674   
O78      O      0.747000000000     0.266220000000     0.287830000000    -0.558488   
O79      O      0.710550000000     0.301150000000     0.209660000000    -0.552578   
O80      O      0.806440000000     0.325650000000     0.287830000000    -0.558556   
O81      O      0.710580000000     0.301140000000     0.834160000000    -0.552546   
O82      O      0.806460000000     0.325640000000     0.755990000000    -0.558509   
O83      O      0.771520000000     0.362090000000     0.834160000000    -0.552614   
O84      O      0.747020000000     0.266210000000     0.755990000000    -0.558518   
O85      O      0.705230000000     0.306490000000     0.709740000000    -0.55242    
O86      O      0.729740000000     0.402370000000     0.787910000000    -0.5584     
O87      O      0.766180000000     0.367430000000     0.709740000000    -0.552567   
O88      O      0.670290000000     0.342930000000     0.787910000000    -0.55811    
O89      O      0.806550000000     0.842940000000     0.287890000000    -0.558546   
O90      O      0.710660000000     0.867450000000     0.209720000000    -0.552481   
O91      O      0.747110000000     0.902380000000     0.287890000000    -0.558297   
O92      O      0.771610000000     0.806500000000     0.209720000000    -0.552721   
O93      O      0.729830000000     0.766220000000     0.255970000000    -0.558355   
O94      O      0.705330000000     0.862100000000     0.334150000000    -0.55243    
O95      O      0.670390000000     0.825660000000     0.255980000000    -0.558513   
O96      O      0.766280000000     0.801150000000     0.334130000000    -0.552633   
O97      O      0.747140000000     0.902360000000     0.755900000000    -0.558396   
O98      O      0.771650000000     0.806470000000     0.834050000000    -0.55261    
O99      O      0.806580000000     0.842920000000     0.755880000000    -0.558439   
O100     O      0.710700000000     0.867420000000     0.834070000000    -0.552455   
O101     O      0.670420000000     0.825640000000     0.787810000000    -0.558376   
O102     O      0.766300000000     0.801140000000     0.709640000000    -0.55273    
O103     O      0.729860000000     0.766200000000     0.787800000000    -0.558481   
O104     O      0.705350000000     0.862090000000     0.709640000000    -0.552473   
O105     O      0.210670000000     0.800850000000     0.334030000000    -0.552462   
O106     O      0.306560000000     0.825350000000     0.255860000000    -0.55832    
O107     O      0.271620000000     0.861790000000     0.334030000000    -0.55244    
O108     O      0.247120000000     0.765910000000     0.255860000000    -0.558295   
O109     O      0.205330000000     0.806190000000     0.209610000000    -0.552467   
O110     O      0.229830000000     0.902080000000     0.287780000000    -0.558267   
O111     O      0.266280000000     0.867140000000     0.209610000000    -0.552514   
O112     O      0.170390000000     0.842640000000     0.287780000000    -0.558268   
O113     O      0.266300000000     0.867130000000     0.834110000000    -0.552469   
O114     O      0.170420000000     0.842630000000     0.755940000000    -0.558336   
O115     O      0.205360000000     0.806180000000     0.834110000000    -0.552485   
O116     O      0.229850000000     0.902060000000     0.755940000000    -0.558356   
O117     O      0.271640000000     0.861790000000     0.709690000000    -0.552521   
O118     O      0.247140000000     0.765900000000     0.787850000000    -0.558253   
O119     O      0.210690000000     0.800840000000     0.709690000000    -0.552436   
O120     O      0.306580000000     0.825340000000     0.787860000000    -0.558301   
O121     O      0.306460000000     0.342620000000     0.787790000000    -0.558436   
O122     O      0.210570000000     0.367130000000     0.709640000000    -0.552597   
O123     O      0.247020000000     0.402060000000     0.787800000000    -0.558282   
O124     O      0.271520000000     0.306180000000     0.709620000000    -0.552426   
O125     O      0.229740000000     0.265900000000     0.755880000000    -0.558256   
O126     O      0.205240000000     0.361780000000     0.834050000000    -0.552522   
O127     O      0.170300000000     0.325340000000     0.755880000000    -0.558364   
O128     O      0.266190000000     0.300830000000     0.834050000000    -0.55243    
V1       V      0.488380000000     0.269040000000     0.021900000000     1.36485    
V2       V      0.488310000000     0.345860000000     0.021890000000     1.42483    
V3       V      0.173320000000     0.583970000000     0.021860000000     1.36554    
V4       V      0.250150000000     0.583950000000     0.021870000000     1.42466    
V5       V      0.488550000000     0.822420000000     0.021880000000     1.42481    
V6       V      0.488480000000     0.899240000000     0.021870000000     1.36501    
V7       V      0.726700000000     0.584330000000     0.021900000000     1.42489    
V8       V      0.803530000000     0.584310000000     0.021910000000     1.36473    
V9       V      0.226700000000     0.083950000000     0.521870000000     1.42648    
V10      V      0.303530000000     0.083970000000     0.521860000000     1.36642    
V11      V      0.988480000000     0.769040000000     0.521870000000     1.36175    
V12      V      0.988540000000     0.845860000000     0.521870000000     1.4215     
V13      V      0.673320000000     0.084310000000     0.521910000000     1.36656    
V14      V      0.750150000000     0.084330000000     0.521900000000     1.42589    
V15      V      0.988310000000     0.322420000000     0.521900000000     1.42142    
V16      V      0.988370000000     0.399240000000     0.521900000000     1.36178    
V17      V      0.260410000000     0.356050000000     0.297070000000     1.39605    
V18      V      0.216290000000     0.311940000000     0.246770000000     1.39585    
V19      V      0.716290000000     0.356360000000     0.297020000000     1.39588    
V20      V      0.760420000000     0.312240000000     0.246720000000     1.39573    
V21      V      0.760440000000     0.312220000000     0.797100000000     1.39592    
V22      V      0.716320000000     0.356350000000     0.746800000000     1.39573    
V23      V      0.760530000000     0.856360000000     0.246780000000     1.39561    
V24      V      0.716410000000     0.812240000000     0.297080000000     1.39609    
V25      V      0.760560000000     0.856340000000     0.797000000000     1.39579    
V26      V      0.716440000000     0.812220000000     0.746700000000     1.3961     
V27      V      0.260540000000     0.811930000000     0.296970000000     1.39583    
V28      V      0.216410000000     0.856060000000     0.246670000000     1.39594    
V29      V      0.216440000000     0.856040000000     0.797050000000     1.39657    
V30      V      0.260560000000     0.811920000000     0.746750000000     1.39567    
V31      V      0.260440000000     0.356040000000     0.746690000000     1.39593    
V32      V      0.216320000000     0.311920000000     0.796990000000     1.39622    


