data_structure

_audit_creation_method RASPA-1.0
_audit_creation_date 2023-5-19
_audit_author_name 'Poobodin Mano'

_cell_length_a    42.2343
_cell_length_b    42.2489
_cell_length_c    42.1973
_cell_angle_alpha 90
_cell_angle_beta  90
_cell_angle_gamma 90
_cell_volume      75294.9

_symmetry_cell_setting          triclinic
_symmetry_space_group_name_Hall 'P 1'
_symmetry_space_group_name_H-M  'P 1'
_symmetry_Int_Tables_number     1

_symmetry_equiv_pos_as_xyz 'x,y,z'

loop_
_atom_site_label
_atom_site_type_symbol
_atom_site_fract_x
_atom_site_fract_y
_atom_site_fract_z
_atom_site_charge
C1       C      0.500550000000     0.061710000000     0.252890000000     0.479259   
C2       C      0.496020000000     0.441920000000     0.256710000000     0.483999   
C3       C      0.438440000000     0.502620000000     0.256700000000     0.481015   
C4       C      0.058120000000     0.500110000000     0.252850000000     0.480928   
C5       C      0.495340000000     0.311610000000     0.255400000000     0.486881   
C6       C      0.500220000000     0.191950000000     0.253330000000     0.480246   
C7       C      0.001460000000     0.251890000000     0.195100000000     0.496489   
C8       C      0.994360000000     0.251220000000     0.314940000000     0.472538   
C9       C      0.308070000000     0.000510000000     0.256890000000     0.471263   
C10      C      0.188360000000     0.999760000000     0.249530000000     0.49672    
C11      C      0.251850000000     0.503640000000     0.193380000000     0.484144   
C12      C      0.244970000000     0.496590000000     0.313120000000     0.480544   
C13      C      0.252500000000     0.007490000000     0.062840000000     0.483483   
C14      C      0.247640000000     0.996100000000     0.443590000000     0.490218   
C15      C      0.249550000000     0.061370000000     0.498750000000     0.481146   
C16      C      0.250500000000     0.442060000000     0.508710000000     0.487095   
C17      C      0.004190000000     0.248850000000     0.064720000000     0.495362   
C18      C      0.992540000000     0.248530000000     0.445360000000     0.478754   
C19      C      0.058030000000     0.246020000000     0.499730000000     0.482385   
C20      C      0.438760000000     0.251790000000     0.510210000000     0.485972   
C21      C      0.188440000000     0.250130000000     0.999650000000     0.492803   
C22      C      0.308430000000     0.253680000000     0.005360000000     0.476147   
C23      C      0.250570000000     0.191790000000     0.500330000000     0.483338   
C24      C      0.247580000000     0.311710000000     0.504980000000     0.484784   
C25      C      0.358260000000     0.241330000000     0.482950000000     0.0474875  
C26      C      0.355960000000     0.267890000000     0.032050000000     0.063265   
C27      C      0.390990000000     0.239240000000     0.485620000000     0.0349494  
C28      C      0.389350000000     0.268720000000     0.033450000000    -0.00789324 
C29      C      0.404410000000     0.284360000000     0.061310000000     0.301357   
C30      C      0.107490000000     0.225260000000     0.516380000000     0.0413471  
C31      C      0.105560000000     0.265950000000     0.978200000000     0.0653096  
C32      C      0.140440000000     0.228240000000     0.517760000000     0.0317577  
C33      C      0.138760000000     0.267330000000     0.977470000000    -0.00837843 
C34      C      0.153260000000     0.291560000000     0.956560000000     0.305582   
C35      C      0.240340000000     0.361840000000     0.980570000000     0.0510149  
C36      C      0.257860000000     0.359140000000     0.033570000000     0.0637181  
C37      C      0.239690000000     0.394710000000     0.982510000000     0.0467926  
C38      C      0.260560000000     0.392370000000     0.034660000000    -0.00578291 
C39      C      0.272200000000     0.407040000000     0.564610000000     0.293121   
C40      C      0.228250000000     0.110300000000     0.015820000000     0.0343507  
C41      C      0.271570000000     0.109680000000     0.480520000000     0.0616866  
C42      C      0.230080000000     0.143190000000     0.017530000000     0.0257667  
C43      C      0.272170000000     0.142960000000     0.480280000000    -0.00995755 
C44      C      0.297810000000     0.158550000000     0.461880000000     0.304353   
C45      C      0.226750000000     0.015650000000     0.362550000000     0.0347015  
C46      C      0.262750000000     0.473010000000     0.360780000000     0.0634182  
C47      C      0.226440000000     0.014060000000     0.395520000000     0.0244913  
C48      C      0.264830000000     0.473020000000     0.394070000000    -0.0101497  
C49      C      0.285790000000     0.448860000000     0.408940000000     0.304182   
C50      C      0.246700000000     0.478970000000     0.143160000000     0.0426061  
C51      C      0.260680000000     0.032940000000     0.145760000000     0.061489   
C52      C      0.245640000000     0.480730000000     0.110340000000     0.0325727  
C53      C      0.261960000000     0.034470000000     0.112310000000    -0.00831459 
C54      C      0.269790000000     0.065630000000     0.097350000000     0.294448   
C55      C      0.015880000000     0.265580000000     0.364640000000     0.0448325  
C56      C      0.468620000000     0.235840000000     0.362570000000     0.0635992  
C57      C      0.014520000000     0.265540000000     0.397580000000     0.0389319  
C58      C      0.468740000000     0.233020000000     0.395830000000    -0.00808724 
C59      C      0.442470000000     0.214980000000     0.410740000000     0.294504   
C60      C      0.481290000000     0.234220000000     0.146020000000     0.0445937  
C61      C      0.526980000000     0.266320000000     0.147040000000     0.0659245  
C62      C      0.483570000000     0.231890000000     0.113240000000     0.0341809  
C63      C      0.527950000000     0.266350000000     0.113650000000    -0.00876332 
C64      C      0.054700000000     0.283070000000     0.097910000000     0.303692   
C65      C      0.107560000000     0.017500000000     0.272440000000     0.0329881  
C66      C      0.105610000000     0.481760000000     0.229510000000     0.0643906  
C67      C      0.140430000000     0.018660000000     0.269990000000     0.0267559  
C68      C      0.138860000000     0.480600000000     0.228650000000    -0.00797908 
C69      C      0.153800000000     0.460840000000     0.203680000000     0.303501   
C70      C      0.356670000000     0.023490000000     0.273840000000     0.0396585  
C71      C      0.356860000000     0.477380000000     0.242260000000     0.0656906  
C72      C      0.389770000000     0.022850000000     0.274880000000     0.0335324  
C73      C      0.389930000000     0.478300000000     0.240730000000    -0.0056652  
C74      C      0.405970000000     0.452580000000     0.223080000000     0.299595   
C75      C      0.009570000000     0.392720000000     0.280280000000     0.0474416  
C76      C      0.478290000000     0.393940000000     0.233970000000     0.0707443  
C77      C      0.010670000000     0.359740000000     0.278510000000     0.0392881  
C78      C      0.477130000000     0.360740000000     0.233380000000    -0.00407454 
C79      C      0.460200000000     0.345500000000     0.206470000000     0.302691   
C80      C      0.016770000000     0.110590000000     0.275290000000     0.0413012  
C81      C      0.487580000000     0.110060000000     0.227590000000     0.0644718  
C82      C      0.017830000000     0.143590000000     0.274330000000     0.0344725  
C83      C      0.485830000000     0.143200000000     0.228160000000    -0.00762991 
C84      C      0.469050000000     0.159020000000     0.201730000000     0.299359   
C85      C      0.500550000000     0.061710000000     0.752890000000     0.479228   
C86      C      0.496020000000     0.441920000000     0.756710000000     0.483975   
C87      C      0.438440000000     0.502620000000     0.756700000000     0.48068    
C88      C      0.058120000000     0.500110000000     0.752850000000     0.480906   
C89      C      0.495340000000     0.311610000000     0.755400000000     0.48687    
C90      C      0.500220000000     0.191950000000     0.753330000000     0.480248   
C91      C      0.001460000000     0.251890000000     0.695100000000     0.49643    
C92      C      0.994360000000     0.251220000000     0.814940000000     0.472712   
C93      C      0.308070000000     0.000510000000     0.756890000000     0.471288   
C94      C      0.188360000000     0.999760000000     0.749520000000     0.496701   
C95      C      0.251850000000     0.503640000000     0.693380000000     0.484184   
C96      C      0.244970000000     0.496590000000     0.813120000000     0.480545   
C97      C      0.252500000000     0.007490000000     0.562830000000     0.484622   
C98      C      0.247640000000     0.996100000000     0.943590000000     0.488349   
C99      C      0.249550000000     0.061370000000     0.998750000000     0.490239   
C100     C      0.250500000000     0.442060000000     0.008710000000     0.485425   
C101     C      0.004190000000     0.248850000000     0.564720000000     0.49643    
C102     C      0.992540000000     0.248530000000     0.945360000000     0.476889   
C103     C      0.058030000000     0.246020000000     0.999730000000     0.491389   
C104     C      0.438760000000     0.251790000000     0.010210000000     0.484314   
C105     C      0.188440000000     0.250130000000     0.499650000000     0.482265   
C106     C      0.308430000000     0.253680000000     0.505360000000     0.486485   
C107     C      0.250570000000     0.191790000000     0.000330000000     0.465995   
C108     C      0.247580000000     0.311710000000     0.004980000000     0.474252   
C109     C      0.358260000000     0.241330000000     0.982950000000     0.0533605  
C110     C      0.355960000000     0.267890000000     0.532050000000     0.0648584  
C111     C      0.390990000000     0.239240000000     0.985620000000     0.0420354  
C112     C      0.389350000000     0.268720000000     0.533450000000    -0.00691527 
C113     C      0.404410000000     0.284360000000     0.561310000000     0.301487   
C114     C      0.107490000000     0.225260000000     0.016380000000     0.0353618  
C115     C      0.105560000000     0.265950000000     0.478200000000     0.0638214  
C116     C      0.140440000000     0.228240000000     0.017760000000     0.0257141  
C117     C      0.138760000000     0.267330000000     0.477470000000    -0.0102293  
C118     C      0.153260000000     0.291560000000     0.456560000000     0.305843   
C119     C      0.240340000000     0.361840000000     0.480570000000     0.0451432  
C120     C      0.257860000000     0.359140000000     0.533570000000     0.065331   
C121     C      0.239690000000     0.394710000000     0.482510000000     0.0399341  
C122     C      0.260560000000     0.392370000000     0.534660000000    -0.00490544 
C123     C      0.272200000000     0.407040000000     0.064610000000     0.293066   
C124     C      0.228250000000     0.110300000000     0.515820000000     0.0398388  
C125     C      0.271570000000     0.109680000000     0.980520000000     0.0636766  
C126     C      0.230080000000     0.143190000000     0.517530000000     0.0328921  
C127     C      0.272170000000     0.142960000000     0.980280000000    -0.00900187 
C128     C      0.297810000000     0.158550000000     0.961880000000     0.304799   
C129     C      0.226750000000     0.015650000000     0.862550000000     0.034942   
C130     C      0.262750000000     0.473010000000     0.860780000000     0.0634827  
C131     C      0.226440000000     0.014060000000     0.895520000000     0.0246846  
C132     C      0.264830000000     0.473020000000     0.894070000000    -0.00977536 
C133     C      0.285790000000     0.448860000000     0.908940000000     0.30409    
C134     C      0.246700000000     0.478970000000     0.643160000000     0.0426336  
C135     C      0.260680000000     0.032940000000     0.645760000000     0.0614812  
C136     C      0.245640000000     0.480730000000     0.610340000000     0.0327023  
C137     C      0.261960000000     0.034470000000     0.612310000000    -0.00802592 
C138     C      0.269790000000     0.065630000000     0.597350000000     0.294504   
C139     C      0.015880000000     0.265580000000     0.864640000000     0.0450601  
C140     C      0.468620000000     0.235840000000     0.862570000000     0.0637399  
C141     C      0.014520000000     0.265540000000     0.897580000000     0.0391104  
C142     C      0.468740000000     0.233020000000     0.895820000000    -0.00773238 
C143     C      0.442470000000     0.214980000000     0.910740000000     0.294811   
C144     C      0.481290000000     0.234220000000     0.646020000000     0.0446155  
C145     C      0.526980000000     0.266320000000     0.647040000000     0.065887   
C146     C      0.483570000000     0.231890000000     0.613240000000     0.0342845  
C147     C      0.527950000000     0.266350000000     0.613650000000    -0.00851472 
C148     C      0.054700000000     0.283070000000     0.597910000000     0.303818   
C149     C      0.107560000000     0.017500000000     0.772440000000     0.0330767  
C150     C      0.105610000000     0.481760000000     0.729510000000     0.0644361  
C151     C      0.140430000000     0.018660000000     0.769990000000     0.0268569  
C152     C      0.138860000000     0.480600000000     0.728650000000    -0.00792846 
C153     C      0.153800000000     0.460840000000     0.703680000000     0.303516   
C154     C      0.356670000000     0.023490000000     0.773840000000     0.0397327  
C155     C      0.356860000000     0.477380000000     0.742260000000     0.0657286  
C156     C      0.389770000000     0.022850000000     0.774880000000     0.0336149  
C157     C      0.389930000000     0.478300000000     0.740730000000    -0.00559377 
C158     C      0.405970000000     0.452580000000     0.723080000000     0.299588   
C159     C      0.009570000000     0.392720000000     0.780280000000     0.0475086  
C160     C      0.478290000000     0.393940000000     0.733970000000     0.0707802  
C161     C      0.010670000000     0.359740000000     0.778510000000     0.0393523  
C162     C      0.477130000000     0.360740000000     0.733380000000    -0.00402954 
C163     C      0.460200000000     0.345500000000     0.706470000000     0.302703   
C164     C      0.016770000000     0.110590000000     0.775300000000     0.0412687  
C165     C      0.487580000000     0.110060000000     0.727590000000     0.0644853  
C166     C      0.017830000000     0.143590000000     0.774330000000     0.0345846  
C167     C      0.485830000000     0.143200000000     0.728160000000    -0.00755567 
C168     C      0.469050000000     0.159020000000     0.701730000000     0.2993     
C169     C      0.500550000000     0.561710000000     0.252890000000     0.480484   
C170     C      0.496020000000     0.941930000000     0.256710000000     0.482187   
C171     C      0.438440000000     0.002620000000     0.256700000000     0.478938   
C172     C      0.058120000000     0.000120000000     0.252850000000     0.461226   
C173     C      0.495340000000     0.811610000000     0.255400000000     0.486944   
C174     C      0.500220000000     0.691950000000     0.253330000000     0.480243   
C175     C      0.001460000000     0.751890000000     0.195100000000     0.496448   
C176     C      0.994360000000     0.751220000000     0.314940000000     0.47254    
C177     C      0.308070000000     0.500510000000     0.256890000000     0.481581   
C178     C      0.188360000000     0.499760000000     0.249530000000     0.485924   
C179     C      0.251850000000     0.003640000000     0.193380000000     0.473109   
C180     C      0.244970000000     0.996590000000     0.313120000000     0.491426   
C181     C      0.252500000000     0.507490000000     0.062840000000     0.485175   
C182     C      0.247640000000     0.496100000000     0.443590000000     0.481159   
C183     C      0.249550000000     0.561370000000     0.498750000000     0.482401   
C184     C      0.250500000000     0.942060000000     0.508710000000     0.485072   
C185     C      0.004190000000     0.748850000000     0.064720000000     0.495313   
C186     C      0.992540000000     0.748530000000     0.445360000000     0.478408   
C187     C      0.058030000000     0.746020000000     0.499730000000     0.482346   
C188     C      0.438760000000     0.751790000000     0.510210000000     0.485941   
C189     C      0.188440000000     0.750130000000     0.999650000000     0.49279    
C190     C      0.308430000000     0.753680000000     0.005360000000     0.476176   
C191     C      0.250570000000     0.691790000000     0.500330000000     0.48334    
C192     C      0.247580000000     0.811710000000     0.504980000000     0.484824   
C193     C      0.358260000000     0.741330000000     0.482950000000     0.0475314  
C194     C      0.355960000000     0.767890000000     0.032050000000     0.0633014  
C195     C      0.390990000000     0.739240000000     0.485620000000     0.0350239  
C196     C      0.389350000000     0.768720000000     0.033450000000    -0.00777963 
C197     C      0.404410000000     0.784360000000     0.061310000000     0.301368   
C198     C      0.107490000000     0.725260000000     0.516380000000     0.0413934  
C199     C      0.105560000000     0.765950000000     0.978200000000     0.0653519  
C200     C      0.140440000000     0.728240000000     0.517760000000     0.0318127  
C201     C      0.138760000000     0.767330000000     0.977470000000    -0.00831276 
C202     C      0.153260000000     0.791560000000     0.956560000000     0.30566    
C203     C      0.240340000000     0.861840000000     0.980570000000     0.051198   
C204     C      0.257860000000     0.859130000000     0.033570000000     0.063832   
C205     C      0.239690000000     0.894710000000     0.982510000000     0.0468723  
C206     C      0.260560000000     0.892370000000     0.034660000000    -0.00544612 
C207     C      0.272200000000     0.907040000000     0.564610000000     0.293347   
C208     C      0.228250000000     0.610300000000     0.015820000000     0.0344606  
C209     C      0.271570000000     0.609680000000     0.480520000000     0.0618704  
C210     C      0.230080000000     0.643190000000     0.017530000000     0.0258428  
C211     C      0.272170000000     0.642960000000     0.480280000000    -0.00986527 
C212     C      0.297810000000     0.658550000000     0.461880000000     0.304395   
C213     C      0.226750000000     0.515650000000     0.362550000000     0.040928   
C214     C      0.262750000000     0.973010000000     0.360780000000     0.0652605  
C215     C      0.226440000000     0.514060000000     0.395520000000     0.0307946  
C216     C      0.264830000000     0.973020000000     0.394070000000    -0.00863847 
C217     C      0.285790000000     0.948860000000     0.408940000000     0.304316   
C218     C      0.246700000000     0.978970000000     0.143160000000     0.0484132  
C219     C      0.260680000000     0.532940000000     0.145760000000     0.0633238  
C220     C      0.245640000000     0.980730000000     0.110340000000     0.0395979  
C221     C      0.261960000000     0.534480000000     0.112310000000    -0.00744176 
C222     C      0.269790000000     0.565630000000     0.097350000000     0.294676   
C223     C      0.015880000000     0.765580000000     0.364640000000     0.0448557  
C224     C      0.468620000000     0.735840000000     0.362570000000     0.0636969  
C225     C      0.014520000000     0.765540000000     0.397580000000     0.0390299  
C226     C      0.468740000000     0.733020000000     0.395830000000    -0.00802415 
C227     C      0.442470000000     0.714980000000     0.410740000000     0.294535   
C228     C      0.481290000000     0.734220000000     0.146020000000     0.0446196  
C229     C      0.526980000000     0.766330000000     0.147040000000     0.0658838  
C230     C      0.483570000000     0.731890000000     0.113240000000     0.034234   
C231     C      0.527950000000     0.766350000000     0.113650000000    -0.00862243 
C232     C      0.054700000000     0.783070000000     0.097910000000     0.303676   
C233     C      0.107560000000     0.517500000000     0.272440000000     0.0405171  
C234     C      0.105610000000     0.981760000000     0.229510000000     0.0647145  
C235     C      0.140430000000     0.518660000000     0.269990000000     0.0324007  
C236     C      0.138860000000     0.980600000000     0.228650000000    -0.00565405 
C237     C      0.153800000000     0.960840000000     0.203680000000     0.303358   
C238     C      0.356670000000     0.523490000000     0.273840000000     0.0414147  
C239     C      0.356860000000     0.977380000000     0.242260000000     0.0718496  
C240     C      0.389770000000     0.522850000000     0.274880000000     0.0347355  
C241     C      0.389930000000     0.978300000000     0.240730000000     0.00106604 
C242     C      0.405970000000     0.952580000000     0.223080000000     0.299021   
C243     C      0.009570000000     0.892720000000     0.280280000000     0.0476209  
C244     C      0.478290000000     0.893940000000     0.233970000000     0.070842   
C245     C      0.010670000000     0.859740000000     0.278510000000     0.0395442  
C246     C      0.477130000000     0.860740000000     0.233380000000    -0.00386085 
C247     C      0.460200000000     0.845500000000     0.206470000000     0.30271    
C248     C      0.016770000000     0.610590000000     0.275290000000     0.0415077  
C249     C      0.487580000000     0.610060000000     0.227590000000     0.064694   
C250     C      0.017830000000     0.643590000000     0.274330000000     0.0345483  
C251     C      0.485830000000     0.643210000000     0.228160000000    -0.00750732 
C252     C      0.469050000000     0.659020000000     0.201730000000     0.299335   
C253     C      0.500550000000     0.561710000000     0.752890000000     0.480451   
C254     C      0.496020000000     0.941930000000     0.756710000000     0.482167   
C255     C      0.438440000000     0.002620000000     0.756700000000     0.478607   
C256     C      0.058120000000     0.000120000000     0.752850000000     0.461241   
C257     C      0.495340000000     0.811610000000     0.755400000000     0.486932   
C258     C      0.500220000000     0.691950000000     0.753330000000     0.480245   
C259     C      0.001460000000     0.751890000000     0.695100000000     0.496389   
C260     C      0.994360000000     0.751220000000     0.814940000000     0.472713   
C261     C      0.308070000000     0.500510000000     0.756890000000     0.481588   
C262     C      0.188360000000     0.499760000000     0.749520000000     0.485933   
C263     C      0.251850000000     0.003640000000     0.693380000000     0.473162   
C264     C      0.244970000000     0.996590000000     0.813120000000     0.491393   
C265     C      0.252500000000     0.507490000000     0.562830000000     0.486318   
C266     C      0.247640000000     0.496100000000     0.943590000000     0.479342   
C267     C      0.249550000000     0.561370000000     0.998750000000     0.49149    
C268     C      0.250500000000     0.942060000000     0.008710000000     0.483409   
C269     C      0.004190000000     0.748850000000     0.564720000000     0.496379   
C270     C      0.992540000000     0.748530000000     0.945360000000     0.47655    
C271     C      0.058030000000     0.746020000000     0.999730000000     0.491334   
C272     C      0.438760000000     0.751790000000     0.010210000000     0.484287   
C273     C      0.188440000000     0.750130000000     0.499650000000     0.482277   
C274     C      0.308430000000     0.753680000000     0.505360000000     0.486495   
C275     C      0.250570000000     0.691790000000     0.000330000000     0.466017   
C276     C      0.247580000000     0.811710000000     0.004980000000     0.474319   
C277     C      0.358260000000     0.741330000000     0.982950000000     0.0533902  
C278     C      0.355960000000     0.767890000000     0.532050000000     0.0648921  
C279     C      0.390990000000     0.739240000000     0.985620000000     0.042093   
C280     C      0.389350000000     0.768720000000     0.533450000000    -0.00680324 
C281     C      0.404410000000     0.784360000000     0.561310000000     0.301498   
C282     C      0.107490000000     0.725260000000     0.016380000000     0.0354191  
C283     C      0.105560000000     0.765950000000     0.478200000000     0.0638677  
C284     C      0.140440000000     0.728240000000     0.017760000000     0.0257806  
C285     C      0.138760000000     0.767330000000     0.477470000000    -0.0101584  
C286     C      0.153260000000     0.791560000000     0.456560000000     0.305921   
C287     C      0.240340000000     0.861840000000     0.480570000000     0.0453465  
C288     C      0.257860000000     0.859130000000     0.533570000000     0.0654386  
C289     C      0.239690000000     0.894710000000     0.482510000000     0.0400496  
C290     C      0.260560000000     0.892370000000     0.534660000000    -0.00456989 
C291     C      0.272200000000     0.907040000000     0.064610000000     0.293293   
C292     C      0.228250000000     0.610300000000     0.515820000000     0.039948   
C293     C      0.271570000000     0.609680000000     0.980520000000     0.0638598  
C294     C      0.230080000000     0.643190000000     0.517530000000     0.0329598  
C295     C      0.272170000000     0.642960000000     0.980280000000    -0.00891181 
C296     C      0.297810000000     0.658550000000     0.961880000000     0.30484    
C297     C      0.226750000000     0.515650000000     0.862550000000     0.0411511  
C298     C      0.262750000000     0.973010000000     0.860780000000     0.0653171  
C299     C      0.226440000000     0.514060000000     0.895520000000     0.0309576  
C300     C      0.264830000000     0.973020000000     0.894070000000    -0.00827057 
C301     C      0.285790000000     0.948860000000     0.908940000000     0.304223   
C302     C      0.246700000000     0.978970000000     0.643160000000     0.0484326  
C303     C      0.260680000000     0.532940000000     0.645760000000     0.0633154  
C304     C      0.245640000000     0.980730000000     0.610340000000     0.0397255  
C305     C      0.261960000000     0.534480000000     0.612310000000    -0.00715306 
C306     C      0.269790000000     0.565630000000     0.597350000000     0.294732   
C307     C      0.015880000000     0.765580000000     0.864640000000     0.0450824  
C308     C      0.468620000000     0.735840000000     0.862570000000     0.0638371  
C309     C      0.014520000000     0.765540000000     0.897580000000     0.0392076  
C310     C      0.468740000000     0.733020000000     0.895820000000    -0.00767029 
C311     C      0.442470000000     0.714980000000     0.910740000000     0.294842   
C312     C      0.481290000000     0.734220000000     0.646020000000     0.0446414  
C313     C      0.526980000000     0.766330000000     0.647040000000     0.0658464  
C314     C      0.483570000000     0.731890000000     0.613240000000     0.0343376  
C315     C      0.527950000000     0.766350000000     0.613650000000    -0.00837438 
C316     C      0.054700000000     0.783070000000     0.597910000000     0.303801   
C317     C      0.107560000000     0.517500000000     0.772440000000     0.0405909  
C318     C      0.105610000000     0.981760000000     0.729510000000     0.0647587  
C319     C      0.140430000000     0.518660000000     0.769990000000     0.0324907  
C320     C      0.138860000000     0.980600000000     0.728650000000    -0.00560927 
C321     C      0.153800000000     0.960840000000     0.703680000000     0.303374   
C322     C      0.356670000000     0.523490000000     0.773840000000     0.0414858  
C323     C      0.356860000000     0.977380000000     0.742260000000     0.0718735  
C324     C      0.389770000000     0.522850000000     0.774880000000     0.0348158  
C325     C      0.389930000000     0.978300000000     0.740730000000     0.00112239 
C326     C      0.405970000000     0.952580000000     0.723080000000     0.299016   
C327     C      0.009570000000     0.892720000000     0.780280000000     0.047687   
C328     C      0.478290000000     0.893940000000     0.733970000000     0.0708774  
C329     C      0.010670000000     0.859740000000     0.778510000000     0.0396074  
C330     C      0.477130000000     0.860740000000     0.733380000000    -0.00381636 
C331     C      0.460200000000     0.845500000000     0.706470000000     0.302722   
C332     C      0.016770000000     0.610590000000     0.775300000000     0.0414747  
C333     C      0.487580000000     0.610060000000     0.727590000000     0.0647073  
C334     C      0.017830000000     0.643590000000     0.774330000000     0.0346603  
C335     C      0.485830000000     0.643210000000     0.728160000000    -0.00743298 
C336     C      0.469050000000     0.659020000000     0.701730000000     0.299275   
C337     C      0.000550000000     0.061710000000     0.252890000000     0.485731   
C338     C      0.996020000000     0.441920000000     0.256710000000     0.482777   
C339     C      0.938440000000     0.502620000000     0.256700000000     0.480287   
C340     C      0.558120000000     0.500110000000     0.252850000000     0.482214   
C341     C      0.995340000000     0.311610000000     0.255400000000     0.479452   
C342     C      0.000220000000     0.191950000000     0.253330000000     0.488038   
C343     C      0.501460000000     0.251890000000     0.195100000000     0.488585   
C344     C      0.494360000000     0.251220000000     0.314940000000     0.480039   
C345     C      0.808070000000     0.000510000000     0.256890000000     0.471249   
C346     C      0.688360000000     0.999760000000     0.249530000000     0.496706   
C347     C      0.751850000000     0.503640000000     0.193380000000     0.484131   
C348     C      0.744970000000     0.496590000000     0.313120000000     0.480524   
C349     C      0.752500000000     0.007490000000     0.062840000000     0.483194   
C350     C      0.747640000000     0.996100000000     0.443590000000     0.490244   
C351     C      0.749540000000     0.061370000000     0.498750000000     0.481159   
C352     C      0.750500000000     0.442060000000     0.508710000000     0.487114   
C353     C      0.504190000000     0.248850000000     0.064720000000     0.488862   
C354     C      0.492540000000     0.248530000000     0.445360000000     0.479927   
C355     C      0.558030000000     0.246020000000     0.499730000000     0.483858   
C356     C      0.938760000000     0.251790000000     0.510210000000     0.485356   
C357     C      0.688440000000     0.250130000000     0.999650000000     0.492854   
C358     C      0.808430000000     0.253680000000     0.005360000000     0.476127   
C359     C      0.750570000000     0.191790000000     0.500330000000     0.483319   
C360     C      0.747570000000     0.311710000000     0.504980000000     0.484771   
C361     C      0.858260000000     0.241330000000     0.482950000000     0.0474704  
C362     C      0.855960000000     0.267890000000     0.032050000000     0.0632833  
C363     C      0.890990000000     0.239240000000     0.485620000000     0.0348387  
C364     C      0.889350000000     0.268720000000     0.033450000000    -0.00807452 
C365     C      0.904410000000     0.284360000000     0.061310000000     0.301313   
C366     C      0.607490000000     0.225260000000     0.516380000000     0.0412645  
C367     C      0.605560000000     0.265950000000     0.978200000000     0.065235   
C368     C      0.640440000000     0.228240000000     0.517760000000     0.0315761  
C369     C      0.638760000000     0.267330000000     0.977470000000    -0.00857581 
C370     C      0.653260000000     0.291560000000     0.956560000000     0.305576   
C371     C      0.740340000000     0.361840000000     0.980570000000     0.0509687  
C372     C      0.757860000000     0.359140000000     0.033570000000     0.0636301  
C373     C      0.739700000000     0.394710000000     0.982510000000     0.0467878  
C374     C      0.760550000000     0.392370000000     0.034660000000    -0.00579627 
C375     C      0.772200000000     0.407040000000     0.564610000000     0.293085   
C376     C      0.728250000000     0.110300000000     0.015820000000     0.0342742  
C377     C      0.771570000000     0.109680000000     0.480520000000     0.0616707  
C378     C      0.730080000000     0.143190000000     0.017530000000     0.0257015  
C379     C      0.772170000000     0.142960000000     0.480280000000    -0.00999222 
C380     C      0.797810000000     0.158550000000     0.461880000000     0.304322   
C381     C      0.726750000000     0.015650000000     0.362550000000     0.0346276  
C382     C      0.762750000000     0.473010000000     0.360780000000     0.063382   
C383     C      0.726440000000     0.014060000000     0.395520000000     0.024407   
C384     C      0.764830000000     0.473020000000     0.394070000000    -0.0102054  
C385     C      0.785790000000     0.448860000000     0.408940000000     0.304147   
C386     C      0.746700000000     0.478970000000     0.143160000000     0.0425748  
C387     C      0.760690000000     0.032940000000     0.145760000000     0.0614254  
C388     C      0.745640000000     0.480730000000     0.110340000000     0.0325009  
C389     C      0.761960000000     0.034470000000     0.112310000000    -0.00840161 
C390     C      0.769790000000     0.065630000000     0.097350000000     0.294485   
C391     C      0.515880000000     0.265580000000     0.364640000000     0.0405018  
C392     C      0.968620000000     0.235840000000     0.362570000000     0.0624072  
C393     C      0.514520000000     0.265540000000     0.397580000000     0.0338179  
C394     C      0.968740000000     0.233020000000     0.395830000000    -0.00885528 
C395     C      0.942470000000     0.214980000000     0.410740000000     0.294494   
C396     C      0.981290000000     0.234220000000     0.146020000000     0.0404383  
C397     C      0.026980000000     0.266320000000     0.147040000000     0.0673102  
C398     C      0.983570000000     0.231890000000     0.113240000000     0.0299174  
C399     C      0.027950000000     0.266350000000     0.113650000000    -0.00754105 
C400     C      0.554700000000     0.283070000000     0.097910000000     0.303753   
C401     C      0.607570000000     0.017500000000     0.272440000000     0.0327909  
C402     C      0.605610000000     0.481760000000     0.229510000000     0.0642078  
C403     C      0.640430000000     0.018660000000     0.269990000000     0.0265417  
C404     C      0.638860000000     0.480600000000     0.228650000000    -0.00823688 
C405     C      0.653800000000     0.460840000000     0.203680000000     0.303499   
C406     C      0.856670000000     0.023490000000     0.273840000000     0.0396007  
C407     C      0.856860000000     0.477380000000     0.242260000000     0.0656745  
C408     C      0.889770000000     0.022850000000     0.274880000000     0.0333532  
C409     C      0.889930000000     0.478300000000     0.240730000000    -0.0058033  
C410     C      0.905970000000     0.452580000000     0.223080000000     0.299692   
C411     C      0.509570000000     0.392720000000     0.280280000000     0.0422198  
C412     C      0.978290000000     0.393940000000     0.233970000000     0.0699113  
C413     C      0.510670000000     0.359740000000     0.278510000000     0.0348467  
C414     C      0.977130000000     0.360740000000     0.233380000000    -0.0052993  
C415     C      0.960200000000     0.345500000000     0.206470000000     0.302882   
C416     C      0.516770000000     0.110590000000     0.275290000000     0.0400905  
C417     C      0.987580000000     0.110060000000     0.227590000000     0.0599873  
C418     C      0.517830000000     0.143590000000     0.274330000000     0.0330831  
C419     C      0.985830000000     0.143200000000     0.228160000000    -0.0116915  
C420     C      0.969050000000     0.159020000000     0.201730000000     0.299676   
C421     C      0.000550000000     0.061710000000     0.752890000000     0.485683   
C422     C      0.996020000000     0.441920000000     0.756710000000     0.482756   
C423     C      0.938440000000     0.502620000000     0.756700000000     0.479955   
C424     C      0.558120000000     0.500110000000     0.752850000000     0.482189   
C425     C      0.995340000000     0.311610000000     0.755400000000     0.479459   
C426     C      0.000220000000     0.191950000000     0.753330000000     0.488014   
C427     C      0.501460000000     0.251890000000     0.695100000000     0.488546   
C428     C      0.494360000000     0.251220000000     0.814940000000     0.480191   
C429     C      0.808070000000     0.000510000000     0.756890000000     0.471275   
C430     C      0.688360000000     0.999760000000     0.749520000000     0.496687   
C431     C      0.751850000000     0.503640000000     0.693380000000     0.484172   
C432     C      0.744970000000     0.496590000000     0.813120000000     0.480526   
C433     C      0.752500000000     0.007490000000     0.562830000000     0.484334   
C434     C      0.747640000000     0.996100000000     0.943590000000     0.488372   
C435     C      0.749540000000     0.061370000000     0.998750000000     0.490283   
C436     C      0.750500000000     0.442060000000     0.008710000000     0.485441   
C437     C      0.504190000000     0.248850000000     0.564720000000     0.489939   
C438     C      0.492540000000     0.248530000000     0.945360000000     0.478056   
C439     C      0.558030000000     0.246020000000     0.999730000000     0.492914   
C440     C      0.938760000000     0.251790000000     0.010210000000     0.483702   
C441     C      0.688440000000     0.250130000000     0.499650000000     0.482283   
C442     C      0.808430000000     0.253680000000     0.505360000000     0.486477   
C443     C      0.750570000000     0.191790000000     0.000330000000     0.465944   
C444     C      0.747570000000     0.311710000000     0.004980000000     0.47422    
C445     C      0.858260000000     0.241330000000     0.982950000000     0.053351   
C446     C      0.855960000000     0.267890000000     0.532050000000     0.0648772  
C447     C      0.890990000000     0.239240000000     0.985620000000     0.0419264  
C448     C      0.889350000000     0.268720000000     0.533450000000    -0.00709663 
C449     C      0.904410000000     0.284360000000     0.561310000000     0.301443   
C450     C      0.607490000000     0.225260000000     0.016380000000     0.035254   
C451     C      0.605560000000     0.265950000000     0.478200000000     0.0637391  
C452     C      0.640440000000     0.228240000000     0.017760000000     0.0255144  
C453     C      0.638760000000     0.267330000000     0.477470000000    -0.0104344  
C454     C      0.653260000000     0.291560000000     0.456560000000     0.305837   
C455     C      0.740340000000     0.361840000000     0.480570000000     0.0450838  
C456     C      0.757860000000     0.359140000000     0.533570000000     0.0652463  
C457     C      0.739700000000     0.394710000000     0.482510000000     0.0399132  
C458     C      0.760550000000     0.392370000000     0.534660000000    -0.00491806 
C459     C      0.772200000000     0.407040000000     0.064610000000     0.29303    
C460     C      0.728250000000     0.110300000000     0.515820000000     0.0397726  
C461     C      0.771570000000     0.109680000000     0.980520000000     0.0636659  
C462     C      0.730080000000     0.143190000000     0.517530000000     0.0328408  
C463     C      0.772170000000     0.142960000000     0.980280000000    -0.00903465 
C464     C      0.797810000000     0.158550000000     0.961880000000     0.304769   
C465     C      0.726750000000     0.015650000000     0.862550000000     0.0348689  
C466     C      0.762750000000     0.473010000000     0.860780000000     0.0634467  
C467     C      0.726440000000     0.014060000000     0.895520000000     0.0246011  
C468     C      0.764830000000     0.473020000000     0.894070000000    -0.00983012 
C469     C      0.785790000000     0.448860000000     0.908940000000     0.304055   
C470     C      0.746700000000     0.478970000000     0.643160000000     0.0426023  
C471     C      0.760690000000     0.032940000000     0.645760000000     0.0614175  
C472     C      0.745640000000     0.480730000000     0.610340000000     0.0326307  
C473     C      0.761960000000     0.034470000000     0.612310000000    -0.00811255 
C474     C      0.769790000000     0.065630000000     0.597350000000     0.294541   
C475     C      0.515880000000     0.265580000000     0.864640000000     0.0407486  
C476     C      0.968620000000     0.235840000000     0.862570000000     0.062553   
C477     C      0.514520000000     0.265540000000     0.897580000000     0.0340287  
C478     C      0.968740000000     0.233020000000     0.895820000000    -0.00849883 
C479     C      0.942470000000     0.214980000000     0.910740000000     0.294802   
C480     C      0.981290000000     0.234220000000     0.646020000000     0.0404672  
C481     C      0.026980000000     0.266320000000     0.647040000000     0.0672702  
C482     C      0.983570000000     0.231890000000     0.613240000000     0.030023   
C483     C      0.027950000000     0.266350000000     0.613650000000    -0.00729572 
C484     C      0.554700000000     0.283070000000     0.597910000000     0.303879   
C485     C      0.607570000000     0.017500000000     0.772440000000     0.0328802  
C486     C      0.605610000000     0.481760000000     0.729510000000     0.0642538  
C487     C      0.640430000000     0.018660000000     0.769990000000     0.0266436  
C488     C      0.638860000000     0.480600000000     0.728650000000    -0.00818544 
C489     C      0.653800000000     0.460840000000     0.703680000000     0.303514   
C490     C      0.856670000000     0.023490000000     0.773840000000     0.0396751  
C491     C      0.856860000000     0.477380000000     0.742260000000     0.0657125  
C492     C      0.889770000000     0.022850000000     0.774880000000     0.0334363  
C493     C      0.889930000000     0.478300000000     0.740730000000    -0.00573165 
C494     C      0.905970000000     0.452580000000     0.723080000000     0.299685   
C495     C      0.509570000000     0.392720000000     0.780280000000     0.042304   
C496     C      0.978290000000     0.393940000000     0.733970000000     0.0699485  
C497     C      0.510670000000     0.359740000000     0.778510000000     0.0349256  
C498     C      0.977130000000     0.360740000000     0.733380000000    -0.00525189 
C499     C      0.960200000000     0.345500000000     0.706470000000     0.302893   
C500     C      0.516770000000     0.110590000000     0.775300000000     0.0400625  
C501     C      0.987580000000     0.110060000000     0.727590000000     0.0600124  
C502     C      0.517830000000     0.143590000000     0.774330000000     0.0332005  
C503     C      0.985830000000     0.143200000000     0.728160000000    -0.0116074  
C504     C      0.969050000000     0.159020000000     0.701730000000     0.299616   
C505     C      0.000550000000     0.561710000000     0.252890000000     0.486952   
C506     C      0.996020000000     0.941930000000     0.256710000000     0.480973   
C507     C      0.938440000000     0.002620000000     0.256700000000     0.478218   
C508     C      0.558120000000     0.000120000000     0.252850000000     0.462424   
C509     C      0.995340000000     0.811610000000     0.255400000000     0.47953    
C510     C      0.000220000000     0.691950000000     0.253330000000     0.488019   
C511     C      0.501460000000     0.751890000000     0.195100000000     0.488564   
C512     C      0.494360000000     0.751220000000     0.314940000000     0.480028   
C513     C      0.808070000000     0.500510000000     0.256890000000     0.481574   
C514     C      0.688360000000     0.499760000000     0.249530000000     0.485884   
C515     C      0.751850000000     0.003640000000     0.193380000000     0.473083   
C516     C      0.744970000000     0.996590000000     0.313120000000     0.491426   
C517     C      0.752500000000     0.507490000000     0.062840000000     0.484887   
C518     C      0.747640000000     0.496100000000     0.443590000000     0.481167   
C519     C      0.749540000000     0.561370000000     0.498750000000     0.482416   
C520     C      0.750500000000     0.942060000000     0.508710000000     0.485087   
C521     C      0.504190000000     0.748850000000     0.064720000000     0.488825   
C522     C      0.492540000000     0.748530000000     0.445360000000     0.47958    
C523     C      0.558030000000     0.746020000000     0.499730000000     0.483817   
C524     C      0.938760000000     0.751790000000     0.510210000000     0.485327   
C525     C      0.688440000000     0.750130000000     0.999650000000     0.492841   
C526     C      0.808430000000     0.753680000000     0.005360000000     0.476156   
C527     C      0.750570000000     0.691790000000     0.500330000000     0.483321   
C528     C      0.747570000000     0.811710000000     0.504980000000     0.484811   
C529     C      0.858260000000     0.741330000000     0.482950000000     0.0475143  
C530     C      0.855960000000     0.767890000000     0.032050000000     0.0633195  
C531     C      0.890990000000     0.739240000000     0.485620000000     0.0349133  
C532     C      0.889350000000     0.768720000000     0.033450000000    -0.00796061 
C533     C      0.904410000000     0.784360000000     0.061310000000     0.301324   
C534     C      0.607490000000     0.725260000000     0.516380000000     0.0413111  
C535     C      0.605560000000     0.765950000000     0.978200000000     0.0652776  
C536     C      0.640440000000     0.728240000000     0.517760000000     0.0316315  
C537     C      0.638760000000     0.767330000000     0.977470000000    -0.00850933 
C538     C      0.653260000000     0.791560000000     0.956560000000     0.305653   
C539     C      0.740340000000     0.861840000000     0.980570000000     0.0511525  
C540     C      0.757860000000     0.859130000000     0.033570000000     0.0637443  
C541     C      0.739700000000     0.894710000000     0.982510000000     0.0468679  
C542     C      0.760550000000     0.892370000000     0.034660000000    -0.00545878 
C543     C      0.772200000000     0.907040000000     0.564610000000     0.293311   
C544     C      0.728250000000     0.610300000000     0.015820000000     0.0343843  
C545     C      0.771570000000     0.609680000000     0.480520000000     0.0618546  
C546     C      0.730080000000     0.643190000000     0.017530000000     0.0257777  
C547     C      0.772170000000     0.642960000000     0.480280000000    -0.00989997 
C548     C      0.797810000000     0.658550000000     0.461880000000     0.304363   
C549     C      0.726750000000     0.515650000000     0.362550000000     0.0408631  
C550     C      0.762750000000     0.973010000000     0.360780000000     0.0652275  
C551     C      0.726440000000     0.514060000000     0.395520000000     0.0307191  
C552     C      0.764830000000     0.973020000000     0.394070000000    -0.00869135 
C553     C      0.785790000000     0.948860000000     0.408940000000     0.304281   
C554     C      0.746700000000     0.978970000000     0.143160000000     0.0483912  
C555     C      0.760690000000     0.532940000000     0.145760000000     0.0632625  
C556     C      0.745640000000     0.980730000000     0.110340000000     0.0395378  
C557     C      0.761960000000     0.534480000000     0.112310000000    -0.00752828 
C558     C      0.769790000000     0.565630000000     0.097350000000     0.294714   
C559     C      0.515880000000     0.765580000000     0.364640000000     0.0405371  
C560     C      0.968620000000     0.735840000000     0.362570000000     0.0625065  
C561     C      0.514520000000     0.765540000000     0.397580000000     0.0339285  
C562     C      0.968740000000     0.733020000000     0.395830000000    -0.00879171 
C563     C      0.942470000000     0.714980000000     0.410740000000     0.294525   
C564     C      0.981290000000     0.734220000000     0.146020000000     0.040472   
C565     C      0.026980000000     0.766330000000     0.147040000000     0.067266   
C566     C      0.983570000000     0.731890000000     0.113240000000     0.0299778  
C567     C      0.027950000000     0.766350000000     0.113650000000    -0.00740438 
C568     C      0.554700000000     0.783070000000     0.097910000000     0.303737   
C569     C      0.607570000000     0.517500000000     0.272440000000     0.0403465  
C570     C      0.605610000000     0.981760000000     0.229510000000     0.0645333  
C571     C      0.640430000000     0.518660000000     0.269990000000     0.0321985  
C572     C      0.638860000000     0.980600000000     0.228650000000    -0.00590256 
C573     C      0.653800000000     0.960840000000     0.203680000000     0.303356   
C574     C      0.856670000000     0.523490000000     0.273840000000     0.0413557  
C575     C      0.856860000000     0.977380000000     0.242260000000     0.0718381  
C576     C      0.889770000000     0.522850000000     0.274880000000     0.0345576  
C577     C      0.889930000000     0.978300000000     0.240730000000     0.00092273 
C578     C      0.905970000000     0.952580000000     0.223080000000     0.299119   
C579     C      0.509570000000     0.892720000000     0.280280000000     0.0424273  
C580     C      0.978290000000     0.893940000000     0.233970000000     0.0700113  
C581     C      0.510670000000     0.859740000000     0.278510000000     0.0351196  
C582     C      0.977130000000     0.860740000000     0.233380000000    -0.00508249 
C583     C      0.960200000000     0.845500000000     0.206470000000     0.302901   
C584     C      0.516770000000     0.610590000000     0.275290000000     0.0402992  
C585     C      0.987580000000     0.610060000000     0.227590000000     0.0602078  
C586     C      0.517830000000     0.643590000000     0.274330000000     0.0331614  
C587     C      0.985830000000     0.643210000000     0.228160000000    -0.0115682  
C588     C      0.969050000000     0.659020000000     0.201730000000     0.299654   
C589     C      0.000550000000     0.561710000000     0.752890000000     0.486901   
C590     C      0.996020000000     0.941930000000     0.756710000000     0.480956   
C591     C      0.938440000000     0.002620000000     0.756700000000     0.477889   
C592     C      0.558120000000     0.000120000000     0.752850000000     0.462436   
C593     C      0.995340000000     0.811610000000     0.755400000000     0.479538   
C594     C      0.000220000000     0.691950000000     0.753330000000     0.487996   
C595     C      0.501460000000     0.751890000000     0.695100000000     0.488526   
C596     C      0.494360000000     0.751220000000     0.814940000000     0.48018    
C597     C      0.808070000000     0.500510000000     0.756890000000     0.48158    
C598     C      0.688360000000     0.499760000000     0.749520000000     0.485893   
C599     C      0.751850000000     0.003640000000     0.693380000000     0.473136   
C600     C      0.744970000000     0.996590000000     0.813120000000     0.491394   
C601     C      0.752500000000     0.507490000000     0.562830000000     0.486031   
C602     C      0.747640000000     0.496100000000     0.943590000000     0.479346   
C603     C      0.749540000000     0.561370000000     0.998750000000     0.491535   
C604     C      0.750500000000     0.942060000000     0.008710000000     0.483422   
C605     C      0.504190000000     0.748850000000     0.564720000000     0.4899     
C606     C      0.492540000000     0.748530000000     0.945360000000     0.477716   
C607     C      0.558030000000     0.746020000000     0.999730000000     0.492856   
C608     C      0.938760000000     0.751790000000     0.010210000000     0.483676   
C609     C      0.688440000000     0.750130000000     0.499650000000     0.482296   
C610     C      0.808430000000     0.753680000000     0.505360000000     0.486487   
C611     C      0.750570000000     0.691790000000     0.000330000000     0.465966   
C612     C      0.747570000000     0.811710000000     0.004980000000     0.474286   
C613     C      0.858260000000     0.741330000000     0.982950000000     0.0533808  
C614     C      0.855960000000     0.767890000000     0.532050000000     0.0649108  
C615     C      0.890990000000     0.739240000000     0.985620000000     0.0419841  
C616     C      0.889350000000     0.768720000000     0.533450000000    -0.00698429 
C617     C      0.904410000000     0.784360000000     0.561310000000     0.301454   
C618     C      0.607490000000     0.725260000000     0.016380000000     0.0353115  
C619     C      0.605560000000     0.765950000000     0.478200000000     0.0637858  
C620     C      0.640440000000     0.728240000000     0.017760000000     0.0255813  
C621     C      0.638760000000     0.767330000000     0.477470000000    -0.0103627  
C622     C      0.653260000000     0.791560000000     0.456560000000     0.305915   
C623     C      0.740340000000     0.861840000000     0.480570000000     0.0452878  
C624     C      0.757860000000     0.859130000000     0.533570000000     0.0653541  
C625     C      0.739700000000     0.894710000000     0.482510000000     0.0400291  
C626     C      0.760550000000     0.892370000000     0.534660000000    -0.00458181 
C627     C      0.772200000000     0.907040000000     0.064610000000     0.293257   
C628     C      0.728250000000     0.610300000000     0.515820000000     0.0398821  
C629     C      0.771570000000     0.609680000000     0.980520000000     0.0638492  
C630     C      0.730080000000     0.643190000000     0.517530000000     0.0329086  
C631     C      0.772170000000     0.642960000000     0.980280000000    -0.00894463 
C632     C      0.797810000000     0.658550000000     0.961880000000     0.30481    
C633     C      0.726750000000     0.515650000000     0.862550000000     0.0410871  
C634     C      0.762750000000     0.973010000000     0.860780000000     0.0652844  
C635     C      0.726440000000     0.514060000000     0.895520000000     0.0308829  
C636     C      0.764830000000     0.973020000000     0.894070000000    -0.00832256 
C637     C      0.785790000000     0.948860000000     0.908940000000     0.304188   
C638     C      0.746700000000     0.978970000000     0.643160000000     0.0484106  
C639     C      0.760690000000     0.532940000000     0.645760000000     0.0632541  
C640     C      0.745640000000     0.980730000000     0.610340000000     0.0396656  
C641     C      0.761960000000     0.534480000000     0.612310000000    -0.00723918 
C642     C      0.769790000000     0.565630000000     0.597350000000     0.29477    
C643     C      0.515880000000     0.765580000000     0.864640000000     0.040783   
C644     C      0.968620000000     0.735840000000     0.862570000000     0.0626518  
C645     C      0.514520000000     0.765540000000     0.897580000000     0.0341385  
C646     C      0.968740000000     0.733020000000     0.895820000000    -0.00843625 
C647     C      0.942470000000     0.714980000000     0.910740000000     0.294832   
C648     C      0.981290000000     0.734220000000     0.646020000000     0.0405009  
C649     C      0.026980000000     0.766330000000     0.647040000000     0.0672261  
C650     C      0.983570000000     0.731890000000     0.613240000000     0.0300835  
C651     C      0.027950000000     0.766350000000     0.613650000000    -0.00715959 
C652     C      0.554700000000     0.783070000000     0.597910000000     0.303862   
C653     C      0.607570000000     0.517500000000     0.772440000000     0.0404211  
C654     C      0.605610000000     0.981760000000     0.729510000000     0.0645781  
C655     C      0.640430000000     0.518660000000     0.769990000000     0.0322893  
C656     C      0.638860000000     0.980600000000     0.728650000000    -0.00585696 
C657     C      0.653800000000     0.960840000000     0.703680000000     0.303371   
C658     C      0.856670000000     0.523490000000     0.773840000000     0.0414269  
C659     C      0.856860000000     0.977380000000     0.742260000000     0.071862   
C660     C      0.889770000000     0.522850000000     0.774880000000     0.0346385  
C661     C      0.889930000000     0.978300000000     0.740730000000     0.000979346
C662     C      0.905970000000     0.952580000000     0.723080000000     0.299113   
C663     C      0.509570000000     0.892720000000     0.780280000000     0.0425105  
C664     C      0.978290000000     0.893940000000     0.733970000000     0.0700481  
C665     C      0.510670000000     0.859740000000     0.778510000000     0.0351974  
C666     C      0.977130000000     0.860740000000     0.733380000000    -0.00503559 
C667     C      0.960200000000     0.845500000000     0.706470000000     0.302912   
C668     C      0.516770000000     0.610590000000     0.775300000000     0.0402706  
C669     C      0.987580000000     0.610060000000     0.727590000000     0.0602327  
C670     C      0.517830000000     0.643590000000     0.774330000000     0.0332787  
C671     C      0.985830000000     0.643210000000     0.728160000000    -0.011484   
C672     C      0.969050000000     0.659020000000     0.701730000000     0.299594   
H1       H      0.403890000000     0.227520000000     0.466800000000     0.0443258  
H2       H      0.347130000000     0.230920000000     0.462280000000     0.0533943  
H3       H      0.342330000000     0.278770000000     0.050950000000     0.0444447  
H4       H      0.442090000000     0.283760000000     0.091130000000     0.186508   
H5       H      0.153330000000     0.212970000000     0.533930000000     0.036209   
H6       H      0.095950000000     0.208570000000     0.532130000000     0.0401618  
H7       H      0.092060000000     0.281750000000     0.963010000000     0.039062   
H8       H      0.184600000000     0.327630000000     0.954670000000     0.182751   
H9       H      0.231400000000     0.407930000000     0.962080000000     0.0446876  
H10      H      0.233310000000     0.350930000000     0.958450000000     0.0361774  
H11      H      0.264950000000     0.345480000000     0.054170000000     0.0465544  
H12      H      0.299350000000     0.442100000000     0.583240000000     0.184905   
H13      H      0.213240000000     0.155510000000     0.032550000000     0.0367385  
H14      H      0.210700000000     0.098330000000     0.030270000000     0.0393738  
H15      H      0.288750000000     0.096750000000     0.466410000000     0.0427935  
H16      H      0.324190000000     0.155580000000     0.421730000000     0.186737   
H17      H      0.211670000000     0.030820000000     0.408240000000     0.0368506  
H18      H      0.211810000000     0.033040000000     0.350940000000     0.0332131  
H19      H      0.276880000000     0.456270000000     0.347300000000     0.043506   
H20      H      0.326490000000     0.423890000000     0.402970000000     0.188439   
H21      H      0.238930000000     0.459660000000     0.097240000000     0.0412002  
H22      H      0.241190000000     0.456380000000     0.154010000000     0.0418426  
H23      H      0.266360000000     0.053930000000     0.159440000000     0.0467077  
H24      H      0.287150000000     0.087390000000     0.058110000000     0.184708   
H25      H      0.032880000000     0.278030000000     0.410560000000     0.0352853  
H26      H      0.035050000000     0.278360000000     0.353280000000     0.0367597  
H27      H      0.450150000000     0.224070000000     0.349090000000     0.0414919  
H28      H      0.431680000000     0.180140000000     0.442110000000     0.178044   
H29      H      0.465790000000     0.218020000000     0.100880000000     0.0462551  
H30      H      0.462350000000     0.221510000000     0.157790000000     0.0416384  
H31      H      0.544800000000     0.279420000000     0.160160000000     0.0463334  
H32      H      0.085840000000     0.281300000000     0.061260000000     0.187303   
H33      H      0.153290000000     0.033660000000     0.286440000000     0.0334428  
H34      H      0.096050000000     0.032190000000     0.290110000000     0.0342529  
H35      H      0.092090000000     0.467570000000     0.212840000000     0.0427851  
H36      H      0.188020000000     0.459550000000     0.170230000000     0.185431   
H37      H      0.402020000000     0.041030000000     0.288300000000     0.0348886  
H38      H      0.344320000000     0.041860000000     0.286870000000     0.0372616  
H39      H      0.344490000000     0.458830000000     0.229430000000     0.0420866  
H40      H      0.430690000000     0.442290000000     0.183100000000     0.184585   
H41      H      0.023990000000     0.347020000000     0.296450000000     0.0349815  
H42      H      0.022610000000     0.404470000000     0.299040000000     0.0365615  
H43      H      0.466140000000     0.407050000000     0.215500000000     0.04661    
H44      H      0.462570000000     0.310580000000     0.173500000000     0.188599   
H45      H      0.030300000000     0.156030000000     0.293050000000     0.034465   
H46      H      0.028880000000     0.098540000000     0.294490000000     0.0346097  
H47      H      0.475710000000     0.097340000000     0.208630000000     0.039058   
H48      H      0.429780000000     0.184240000000     0.190090000000     0.178268   
H49      H      0.403890000000     0.227520000000     0.966800000000     0.0443633  
H50      H      0.347130000000     0.230920000000     0.962280000000     0.052917   
H51      H      0.342330000000     0.278770000000     0.550950000000     0.0443798  
H52      H      0.442090000000     0.283760000000     0.591130000000     0.186751   
H53      H      0.153330000000     0.212970000000     0.033930000000     0.0364452  
H54      H      0.095950000000     0.208570000000     0.032130000000     0.0404143  
H55      H      0.092060000000     0.281750000000     0.463010000000     0.0386645  
H56      H      0.184600000000     0.327630000000     0.454680000000     0.182419   
H57      H      0.231400000000     0.407930000000     0.462080000000     0.0445871  
H58      H      0.233310000000     0.350930000000     0.458450000000     0.0366593  
H59      H      0.264950000000     0.345480000000     0.554170000000     0.0464485  
H60      H      0.299350000000     0.442100000000     0.083240000000     0.18475    
H61      H      0.213240000000     0.155510000000     0.532550000000     0.0357882  
H62      H      0.210700000000     0.098330000000     0.530270000000     0.0392179  
H63      H      0.288750000000     0.096750000000     0.966410000000     0.0431929  
H64      H      0.324190000000     0.155580000000     0.921720000000     0.186963   
H65      H      0.211670000000     0.030820000000     0.908240000000     0.0376781  
H66      H      0.211810000000     0.033040000000     0.850940000000     0.0334485  
H67      H      0.276880000000     0.456270000000     0.847300000000     0.0436218  
H68      H      0.326490000000     0.423890000000     0.902970000000     0.189352   
H69      H      0.238930000000     0.459660000000     0.597240000000     0.0412657  
H70      H      0.241190000000     0.456380000000     0.654010000000     0.0418912  
H71      H      0.266360000000     0.053930000000     0.659440000000     0.0467817  
H72      H      0.287150000000     0.087390000000     0.558110000000     0.186228   
H73      H      0.032880000000     0.278030000000     0.910560000000     0.0358128  
H74      H      0.035050000000     0.278360000000     0.853280000000     0.0369384  
H75      H      0.450150000000     0.224070000000     0.849090000000     0.041597   
H76      H      0.431680000000     0.180140000000     0.942110000000     0.179297   
H77      H      0.465790000000     0.218020000000     0.600880000000     0.0464831  
H78      H      0.462350000000     0.221510000000     0.657790000000     0.041699   
H79      H      0.544800000000     0.279420000000     0.660160000000     0.0463974  
H80      H      0.085840000000     0.281300000000     0.561270000000     0.188808   
H81      H      0.153290000000     0.033660000000     0.786440000000     0.0335999  
H82      H      0.096050000000     0.032190000000     0.790110000000     0.0344873  
H83      H      0.092090000000     0.467570000000     0.712840000000     0.0429069  
H84      H      0.188020000000     0.459550000000     0.670230000000     0.185554   
H85      H      0.402020000000     0.041030000000     0.788300000000     0.0350751  
H86      H      0.344320000000     0.041860000000     0.786870000000     0.0373762  
H87      H      0.344490000000     0.458830000000     0.729430000000     0.042122   
H88      H      0.430690000000     0.442290000000     0.683100000000     0.184774   
H89      H      0.023990000000     0.347020000000     0.796450000000     0.0351417  
H90      H      0.022610000000     0.404470000000     0.799040000000     0.036829   
H91      H      0.466140000000     0.407050000000     0.715500000000     0.046678   
H92      H      0.462570000000     0.310580000000     0.673500000000     0.188662   
H93      H      0.030300000000     0.156030000000     0.793050000000     0.0346297  
H94      H      0.028880000000     0.098540000000     0.794490000000     0.0348878  
H95      H      0.475710000000     0.097340000000     0.708630000000     0.0392036  
H96      H      0.429780000000     0.184240000000     0.690090000000     0.178361   
H97      H      0.403890000000     0.727520000000     0.466800000000     0.0443697  
H98      H      0.347130000000     0.730920000000     0.462280000000     0.053429   
H99      H      0.342330000000     0.778770000000     0.050950000000     0.0444973  
H100     H      0.442090000000     0.783760000000     0.091130000000     0.186619   
H101     H      0.153330000000     0.712970000000     0.533930000000     0.0362991  
H102     H      0.095950000000     0.708570000000     0.532130000000     0.0403246  
H103     H      0.092060000000     0.781750000000     0.963010000000     0.0392393  
H104     H      0.184600000000     0.827630000000     0.954670000000     0.182892   
H105     H      0.231400000000     0.907930000000     0.962080000000     0.0453013  
H106     H      0.233310000000     0.850930000000     0.958450000000     0.0363123  
H107     H      0.264950000000     0.845480000000     0.054170000000     0.0466212  
H108     H      0.299350000000     0.942100000000     0.583240000000     0.186248   
H109     H      0.213240000000     0.655520000000     0.032550000000     0.036856   
H110     H      0.210700000000     0.598330000000     0.030270000000     0.0396764  
H111     H      0.288750000000     0.596750000000     0.466410000000     0.0433624  
H112     H      0.324190000000     0.655580000000     0.421730000000     0.186918   
H113     H      0.211670000000     0.530820000000     0.408240000000     0.0366183  
H114     H      0.211810000000     0.533040000000     0.350940000000     0.0330478  
H115     H      0.276880000000     0.956270000000     0.347300000000     0.0437972  
H116     H      0.326490000000     0.923880000000     0.402970000000     0.188948   
H117     H      0.238930000000     0.959660000000     0.097240000000     0.0411903  
H118     H      0.241190000000     0.956380000000     0.154010000000     0.0412453  
H119     H      0.266360000000     0.553930000000     0.159440000000     0.046669   
H120     H      0.287150000000     0.587390000000     0.058110000000     0.184857   
H121     H      0.032880000000     0.778030000000     0.410560000000     0.0354587  
H122     H      0.035050000000     0.778360000000     0.353280000000     0.0369093  
H123     H      0.450150000000     0.724070000000     0.349090000000     0.0415457  
H124     H      0.431680000000     0.680140000000     0.442110000000     0.178284   
H125     H      0.465790000000     0.718020000000     0.100880000000     0.0463554  
H126     H      0.462350000000     0.721510000000     0.157790000000     0.0416669  
H127     H      0.544800000000     0.779420000000     0.160160000000     0.0464274  
H128     H      0.085840000000     0.781300000000     0.061260000000     0.187447   
H129     H      0.153290000000     0.533660000000     0.286440000000     0.0334845  
H130     H      0.096050000000     0.532190000000     0.290110000000     0.0332069  
H131     H      0.092090000000     0.967570000000     0.212840000000     0.0441488  
H132     H      0.188020000000     0.959550000000     0.170230000000     0.185963   
H133     H      0.402020000000     0.541020000000     0.288300000000     0.0352134  
H134     H      0.344320000000     0.541860000000     0.286870000000     0.0375811  
H135     H      0.344490000000     0.958830000000     0.229430000000     0.0418503  
H136     H      0.430690000000     0.942290000000     0.183100000000     0.185107   
H137     H      0.023990000000     0.847020000000     0.296450000000     0.0352292  
H138     H      0.022610000000     0.904470000000     0.299040000000     0.0375393  
H139     H      0.466140000000     0.907050000000     0.215500000000     0.0470902  
H140     H      0.462570000000     0.810580000000     0.173500000000     0.188681   
H141     H      0.030300000000     0.656030000000     0.293050000000     0.0345849  
H142     H      0.028880000000     0.598540000000     0.294490000000     0.0349052  
H143     H      0.475710000000     0.597340000000     0.208630000000     0.0394454  
H144     H      0.429780000000     0.684240000000     0.190090000000     0.178341   
H145     H      0.403890000000     0.727520000000     0.966800000000     0.0444074  
H146     H      0.347130000000     0.730920000000     0.962280000000     0.0529529  
H147     H      0.342330000000     0.778770000000     0.550950000000     0.0444323  
H148     H      0.442090000000     0.783760000000     0.591130000000     0.186861   
H149     H      0.153330000000     0.712970000000     0.033930000000     0.036534   
H150     H      0.095950000000     0.708570000000     0.032130000000     0.0405752  
H151     H      0.092060000000     0.781750000000     0.463010000000     0.0388443  
H152     H      0.184600000000     0.827630000000     0.454680000000     0.182563   
H153     H      0.231400000000     0.907930000000     0.462080000000     0.0452035  
H154     H      0.233310000000     0.850930000000     0.458450000000     0.0367935  
H155     H      0.264950000000     0.845480000000     0.554170000000     0.0465159  
H156     H      0.299350000000     0.942100000000     0.083240000000     0.186093   
H157     H      0.213240000000     0.655520000000     0.532550000000     0.0359085  
H158     H      0.210700000000     0.598330000000     0.530270000000     0.0395213  
H159     H      0.288750000000     0.596750000000     0.966410000000     0.0437588  
H160     H      0.324190000000     0.655580000000     0.921720000000     0.187143   
H161     H      0.211670000000     0.530820000000     0.908240000000     0.0374483  
H162     H      0.211810000000     0.533040000000     0.850940000000     0.0332837  
H163     H      0.276880000000     0.956270000000     0.847300000000     0.0439119  
H164     H      0.326490000000     0.923880000000     0.902970000000     0.189855   
H165     H      0.238930000000     0.959660000000     0.597240000000     0.0412558  
H166     H      0.241190000000     0.956380000000     0.654010000000     0.0412949  
H167     H      0.266360000000     0.553930000000     0.659440000000     0.046743   
H168     H      0.287150000000     0.587390000000     0.558110000000     0.186378   
H169     H      0.032880000000     0.778030000000     0.910560000000     0.0359839  
H170     H      0.035050000000     0.778360000000     0.853280000000     0.0370869  
H171     H      0.450150000000     0.724070000000     0.849090000000     0.0416505  
H172     H      0.431680000000     0.680140000000     0.942110000000     0.179534   
H173     H      0.465790000000     0.718020000000     0.600880000000     0.0465837  
H174     H      0.462350000000     0.721510000000     0.657790000000     0.0417276  
H175     H      0.544800000000     0.779420000000     0.660160000000     0.0464912  
H176     H      0.085840000000     0.781300000000     0.561270000000     0.188949   
H177     H      0.153290000000     0.533660000000     0.786440000000     0.0336412  
H178     H      0.096050000000     0.532190000000     0.790110000000     0.0334433  
H179     H      0.092090000000     0.967570000000     0.712840000000     0.044268   
H180     H      0.188020000000     0.959550000000     0.670230000000     0.186085   
H181     H      0.402020000000     0.541020000000     0.788300000000     0.035399   
H182     H      0.344320000000     0.541860000000     0.786870000000     0.0376944  
H183     H      0.344490000000     0.958830000000     0.729430000000     0.0418867  
H184     H      0.430690000000     0.942290000000     0.683100000000     0.185296   
H185     H      0.023990000000     0.847020000000     0.796450000000     0.0353879  
H186     H      0.022610000000     0.904470000000     0.799040000000     0.0378027  
H187     H      0.466140000000     0.907050000000     0.715500000000     0.0471574  
H188     H      0.462570000000     0.810580000000     0.673500000000     0.188744   
H189     H      0.030300000000     0.656030000000     0.793050000000     0.0347492  
H190     H      0.028880000000     0.598540000000     0.794490000000     0.0351826  
H191     H      0.475710000000     0.597340000000     0.708630000000     0.0395912  
H192     H      0.429780000000     0.684240000000     0.690090000000     0.178434   
H193     H      0.903890000000     0.227520000000     0.466800000000     0.0443256  
H194     H      0.847130000000     0.230920000000     0.462280000000     0.0533567  
H195     H      0.842330000000     0.278770000000     0.050950000000     0.0444197  
H196     H      0.942090000000     0.283760000000     0.091130000000     0.185674   
H197     H      0.653330000000     0.212970000000     0.533930000000     0.0360528  
H198     H      0.595940000000     0.208570000000     0.532130000000     0.0395704  
H199     H      0.592060000000     0.281750000000     0.963010000000     0.0385034  
H200     H      0.684600000000     0.327630000000     0.954670000000     0.182645   
H201     H      0.731400000000     0.407930000000     0.962080000000     0.0445922  
H202     H      0.733310000000     0.350930000000     0.958450000000     0.0361339  
H203     H      0.764950000000     0.345480000000     0.054170000000     0.0465457  
H204     H      0.799350000000     0.442100000000     0.583240000000     0.184836   
H205     H      0.713240000000     0.155510000000     0.032550000000     0.0366161  
H206     H      0.710700000000     0.098330000000     0.030270000000     0.0391843  
H207     H      0.788750000000     0.096750000000     0.466410000000     0.0427075  
H208     H      0.824190000000     0.155580000000     0.421730000000     0.186499   
H209     H      0.711670000000     0.030820000000     0.408240000000     0.03668    
H210     H      0.711810000000     0.033040000000     0.350940000000     0.033094   
H211     H      0.776880000000     0.456270000000     0.347300000000     0.0434645  
H212     H      0.826490000000     0.423890000000     0.402970000000     0.188239   
H213     H      0.738930000000     0.459660000000     0.097240000000     0.0411437  
H214     H      0.741190000000     0.456380000000     0.154010000000     0.0418124  
H215     H      0.766360000000     0.053930000000     0.159440000000     0.0466716  
H216     H      0.787150000000     0.087390000000     0.058110000000     0.184634   
H217     H      0.532880000000     0.278030000000     0.410560000000     0.0349672  
H218     H      0.535050000000     0.278360000000     0.353280000000     0.0368299  
H219     H      0.950150000000     0.224070000000     0.349090000000     0.0413583  
H220     H      0.931680000000     0.180140000000     0.442110000000     0.177806   
H221     H      0.965790000000     0.218020000000     0.100880000000     0.0466016  
H222     H      0.962350000000     0.221510000000     0.157790000000     0.0420503  
H223     H      0.044800000000     0.279420000000     0.160160000000     0.0466099  
H224     H      0.585840000000     0.281300000000     0.061260000000     0.187062   
H225     H      0.653290000000     0.033660000000     0.286440000000     0.0333009  
H226     H      0.596050000000     0.032190000000     0.290110000000     0.0338429  
H227     H      0.592090000000     0.467570000000     0.212840000000     0.0420356  
H228     H      0.688020000000     0.459550000000     0.170230000000     0.185321   
H229     H      0.902020000000     0.041030000000     0.288300000000     0.0344348  
H230     H      0.844320000000     0.041860000000     0.286870000000     0.0371506  
H231     H      0.844490000000     0.458830000000     0.229430000000     0.0420521  
H232     H      0.930680000000     0.442290000000     0.183100000000     0.184311   
H233     H      0.523990000000     0.347020000000     0.296450000000     0.0347125  
H234     H      0.522610000000     0.404470000000     0.299040000000     0.0359611  
H235     H      0.966140000000     0.407050000000     0.215500000000     0.0464066  
H236     H      0.962580000000     0.310580000000     0.173500000000     0.188054   
H237     H      0.530300000000     0.156030000000     0.293050000000     0.0339079  
H238     H      0.528880000000     0.098540000000     0.294490000000     0.0340642  
H239     H      0.975710000000     0.097340000000     0.208630000000     0.0392689  
H240     H      0.929780000000     0.184240000000     0.190090000000     0.178292   
H241     H      0.903890000000     0.227520000000     0.966800000000     0.0443629  
H242     H      0.847130000000     0.230920000000     0.962280000000     0.0528788  
H243     H      0.842330000000     0.278770000000     0.550950000000     0.0443547  
H244     H      0.942090000000     0.283760000000     0.591130000000     0.185917   
H245     H      0.653330000000     0.212970000000     0.033930000000     0.03629    
H246     H      0.595940000000     0.208570000000     0.032130000000     0.0398235  
H247     H      0.592060000000     0.281750000000     0.463010000000     0.0381017  
H248     H      0.684600000000     0.327630000000     0.454680000000     0.182311   
H249     H      0.731400000000     0.407930000000     0.462080000000     0.0444903  
H250     H      0.733310000000     0.350930000000     0.458450000000     0.0366166  
H251     H      0.764950000000     0.345480000000     0.554170000000     0.0464394  
H252     H      0.799350000000     0.442100000000     0.083240000000     0.18468    
H253     H      0.713240000000     0.155510000000     0.532550000000     0.0356642  
H254     H      0.710700000000     0.098330000000     0.530270000000     0.0390286  
H255     H      0.788750000000     0.096750000000     0.966410000000     0.043107   
H256     H      0.824190000000     0.155580000000     0.921720000000     0.186726   
H257     H      0.711670000000     0.030820000000     0.908240000000     0.0375107  
H258     H      0.711810000000     0.033040000000     0.850940000000     0.0333307  
H259     H      0.776880000000     0.456270000000     0.847300000000     0.0435805  
H260     H      0.826490000000     0.423890000000     0.902970000000     0.189153   
H261     H      0.738930000000     0.459660000000     0.597240000000     0.0412095  
H262     H      0.741190000000     0.456380000000     0.654010000000     0.0418612  
H263     H      0.766360000000     0.053930000000     0.659440000000     0.0467456  
H264     H      0.787150000000     0.087390000000     0.558110000000     0.186156   
H265     H      0.532880000000     0.278030000000     0.910560000000     0.035498   
H266     H      0.535050000000     0.278360000000     0.853280000000     0.0370094  
H267     H      0.950150000000     0.224070000000     0.849090000000     0.0414634  
H268     H      0.931680000000     0.180140000000     0.942110000000     0.17906    
H269     H      0.965790000000     0.218020000000     0.600880000000     0.0468292  
H270     H      0.962350000000     0.221510000000     0.657790000000     0.0421101  
H271     H      0.044800000000     0.279420000000     0.660160000000     0.046673   
H272     H      0.585840000000     0.281300000000     0.561270000000     0.188573   
H273     H      0.653290000000     0.033660000000     0.786440000000     0.0334591  
H274     H      0.596050000000     0.032190000000     0.790110000000     0.0340799  
H275     H      0.592090000000     0.467570000000     0.712840000000     0.0421595  
H276     H      0.688020000000     0.459550000000     0.670230000000     0.185445   
H277     H      0.902020000000     0.041030000000     0.788300000000     0.0346227  
H278     H      0.844320000000     0.041860000000     0.786870000000     0.0372655  
H279     H      0.844490000000     0.458830000000     0.729430000000     0.0420875  
H280     H      0.930680000000     0.442290000000     0.683100000000     0.1845     
H281     H      0.523990000000     0.347020000000     0.796450000000     0.0348751  
H282     H      0.522610000000     0.404470000000     0.799040000000     0.0362328  
H283     H      0.966140000000     0.407050000000     0.715500000000     0.0464743  
H284     H      0.962580000000     0.310580000000     0.673500000000     0.188118   
H285     H      0.530300000000     0.156030000000     0.793050000000     0.0340763  
H286     H      0.528880000000     0.098540000000     0.794490000000     0.0343464  
H287     H      0.975710000000     0.097340000000     0.708630000000     0.0394126  
H288     H      0.929780000000     0.184240000000     0.690090000000     0.178384   
H289     H      0.903890000000     0.727520000000     0.466800000000     0.0443694  
H290     H      0.847130000000     0.730920000000     0.462280000000     0.0533915  
H291     H      0.842330000000     0.778770000000     0.050950000000     0.0444724  
H292     H      0.942090000000     0.783760000000     0.091130000000     0.185786   
H293     H      0.653330000000     0.712970000000     0.533930000000     0.0361433  
H294     H      0.595940000000     0.708570000000     0.532130000000     0.0397344  
H295     H      0.592060000000     0.781750000000     0.963010000000     0.038683   
H296     H      0.684600000000     0.827630000000     0.954670000000     0.182787   
H297     H      0.731400000000     0.907930000000     0.962080000000     0.0452078  
H298     H      0.733310000000     0.850930000000     0.958450000000     0.0362693  
H299     H      0.764950000000     0.845480000000     0.054170000000     0.0466126  
H300     H      0.799350000000     0.942100000000     0.583240000000     0.186179   
H301     H      0.713240000000     0.655520000000     0.032550000000     0.036734   
H302     H      0.710700000000     0.598330000000     0.030270000000     0.0394878  
H303     H      0.788750000000     0.596750000000     0.466410000000     0.0432763  
H304     H      0.824190000000     0.655580000000     0.421730000000     0.18668    
H305     H      0.711670000000     0.530820000000     0.408240000000     0.0364477  
H306     H      0.711810000000     0.533040000000     0.350940000000     0.0329288  
H307     H      0.776880000000     0.956270000000     0.347300000000     0.0437557  
H308     H      0.826490000000     0.923880000000     0.402970000000     0.188749   
H309     H      0.738930000000     0.959660000000     0.097240000000     0.0411344  
H310     H      0.741190000000     0.956380000000     0.154010000000     0.0412144  
H311     H      0.766360000000     0.553930000000     0.159440000000     0.0466324  
H312     H      0.787150000000     0.587390000000     0.058110000000     0.184783   
H313     H      0.532880000000     0.778030000000     0.410560000000     0.0351427  
H314     H      0.535050000000     0.778360000000     0.353280000000     0.0369801  
H315     H      0.950150000000     0.724070000000     0.349090000000     0.0414117  
H316     H      0.931680000000     0.680140000000     0.442110000000     0.178045   
H317     H      0.965790000000     0.718020000000     0.100880000000     0.0467004  
H318     H      0.962350000000     0.721510000000     0.157790000000     0.0420778  
H319     H      0.044800000000     0.779420000000     0.160160000000     0.0467019  
H320     H      0.585840000000     0.781300000000     0.061260000000     0.187208   
H321     H      0.653290000000     0.533660000000     0.286440000000     0.0333429  
H322     H      0.596050000000     0.532190000000     0.290110000000     0.0327937  
H323     H      0.592090000000     0.967570000000     0.212840000000     0.0434084  
H324     H      0.688020000000     0.959550000000     0.170230000000     0.185855   
H325     H      0.902020000000     0.541020000000     0.288300000000     0.0347587  
H326     H      0.844320000000     0.541860000000     0.286870000000     0.0374703  
H327     H      0.844490000000     0.958830000000     0.229430000000     0.0418157  
H328     H      0.930680000000     0.942290000000     0.183100000000     0.184833   
H329     H      0.523990000000     0.847020000000     0.296450000000     0.0349626  
H330     H      0.522610000000     0.904470000000     0.299040000000     0.0369457  
H331     H      0.966140000000     0.907050000000     0.215500000000     0.0468868  
H332     H      0.962580000000     0.810580000000     0.173500000000     0.188138   
H333     H      0.530300000000     0.656030000000     0.293050000000     0.0340291  
H334     H      0.528880000000     0.598540000000     0.294490000000     0.0343612  
H335     H      0.975710000000     0.597340000000     0.208630000000     0.039655   
H336     H      0.929780000000     0.684240000000     0.190090000000     0.178365   
H337     H      0.903890000000     0.727520000000     0.966800000000     0.0444069  
H338     H      0.847130000000     0.730920000000     0.962280000000     0.0529146  
H339     H      0.842330000000     0.778770000000     0.550950000000     0.0444073  
H340     H      0.942090000000     0.783760000000     0.591130000000     0.186029   
H341     H      0.653330000000     0.712970000000     0.033930000000     0.0363792  
H342     H      0.595940000000     0.708570000000     0.032130000000     0.0399856  
H343     H      0.592060000000     0.781750000000     0.463010000000     0.0382839  
H344     H      0.684600000000     0.827630000000     0.454680000000     0.182456   
H345     H      0.731400000000     0.907930000000     0.462080000000     0.0451086  
H346     H      0.733310000000     0.850930000000     0.458450000000     0.0367512  
H347     H      0.764950000000     0.845480000000     0.554170000000     0.046507   
H348     H      0.799350000000     0.942100000000     0.083240000000     0.186025   
H349     H      0.713240000000     0.655520000000     0.532550000000     0.0357849  
H350     H      0.710700000000     0.598330000000     0.530270000000     0.0393329  
H351     H      0.788750000000     0.596750000000     0.966410000000     0.0436729  
H352     H      0.824190000000     0.655580000000     0.921720000000     0.186906   
H353     H      0.711670000000     0.530820000000     0.908240000000     0.037281   
H354     H      0.711810000000     0.533040000000     0.850940000000     0.033166   
H355     H      0.776880000000     0.956270000000     0.847300000000     0.0438706  
H356     H      0.826490000000     0.923880000000     0.902970000000     0.189657   
H357     H      0.738930000000     0.959660000000     0.597240000000     0.0412004  
H358     H      0.741190000000     0.956380000000     0.654010000000     0.0412642  
H359     H      0.766360000000     0.553930000000     0.659440000000     0.0467065  
H360     H      0.787150000000     0.587390000000     0.558110000000     0.186306   
H361     H      0.532880000000     0.778030000000     0.910560000000     0.0356712  
H362     H      0.535050000000     0.778360000000     0.853280000000     0.0371586  
H363     H      0.950150000000     0.724070000000     0.849090000000     0.0415165  
H364     H      0.931680000000     0.680140000000     0.942110000000     0.179297   
H365     H      0.965790000000     0.718020000000     0.600880000000     0.0469282  
H366     H      0.962350000000     0.721510000000     0.657790000000     0.0421376  
H367     H      0.044800000000     0.779420000000     0.660160000000     0.0467649  
H368     H      0.585840000000     0.781300000000     0.561270000000     0.188716   
H369     H      0.653290000000     0.533660000000     0.786440000000     0.0335007  
H370     H      0.596050000000     0.532190000000     0.790110000000     0.0330328  
H371     H      0.592090000000     0.967570000000     0.712840000000     0.0435297  
H372     H      0.688020000000     0.959550000000     0.670230000000     0.185978   
H373     H      0.902020000000     0.541020000000     0.788300000000     0.0349457  
H374     H      0.844320000000     0.541860000000     0.786870000000     0.037584   
H375     H      0.844490000000     0.958830000000     0.729430000000     0.0418521  
H376     H      0.930680000000     0.942290000000     0.683100000000     0.185022   
H377     H      0.523990000000     0.847020000000     0.796450000000     0.0351237  
H378     H      0.522610000000     0.904470000000     0.799040000000     0.0372132  
H379     H      0.966140000000     0.907050000000     0.715500000000     0.0469536  
H380     H      0.962580000000     0.810580000000     0.673500000000     0.188202   
H381     H      0.530300000000     0.656030000000     0.793050000000     0.0341971  
H382     H      0.528880000000     0.598540000000     0.794490000000     0.0346427  
H383     H      0.975710000000     0.597340000000     0.708630000000     0.039799   
H384     H      0.929780000000     0.684240000000     0.690090000000     0.178458   
N1       N      0.340760000000     0.254420000000     0.006770000000    -0.194251   
N2       N      0.406510000000     0.253260000000     0.510330000000    -0.174361   
N3       N      0.090250000000     0.245130000000     0.997630000000    -0.190148   
N4       N      0.156070000000     0.248950000000     0.998220000000    -0.170906   
N5       N      0.248450000000     0.344090000000     0.506390000000    -0.191698   
N6       N      0.250710000000     0.409850000000     0.508890000000    -0.172999   
N7       N      0.249540000000     0.093690000000     0.498010000000    -0.193916   
N8       N      0.251370000000     0.159480000000     0.499340000000    -0.175116   
N9       N      0.244550000000     0.494860000000     0.345390000000    -0.194489   
N10      N      0.246210000000     0.493760000000     0.411280000000    -0.174566   
N11      N      0.253220000000     0.505260000000     0.160920000000    -0.191325   
N12      N      0.253900000000     0.007920000000     0.095020000000    -0.17929    
N13      N      0.992760000000     0.251050000000     0.347270000000    -0.195864   
N14      N      0.991730000000     0.248580000000     0.413080000000    -0.178018   
N15      N      0.003290000000     0.250920000000     0.162820000000    -0.191417   
N16      N      0.005900000000     0.248840000000     0.097030000000    -0.17209    
N17      N      0.090360000000     0.499700000000     0.251660000000    -0.194205   
N18      N      0.156050000000     0.999730000000     0.248820000000    -0.172092   
N19      N      0.340420000000     0.000530000000     0.257790000000    -0.196169   
N20      N      0.406210000000     0.001090000000     0.257450000000    -0.179786   
N21      N      0.494340000000     0.409640000000     0.257330000000    -0.192874   
N22      N      0.494180000000     0.343870000000     0.255510000000    -0.174887   
N23      N      0.501780000000     0.094000000000     0.251830000000    -0.193787   
N24      N      0.501350000000     0.159750000000     0.251650000000    -0.175357   
N25      N      0.340760000000     0.254420000000     0.506770000000    -0.191376   
N26      N      0.406510000000     0.253260000000     0.010330000000    -0.178516   
N27      N      0.090250000000     0.245130000000     0.497630000000    -0.19353    
N28      N      0.156070000000     0.248950000000     0.498230000000    -0.173878   
N29      N      0.248450000000     0.344090000000     0.006390000000    -0.19456    
N30      N      0.250710000000     0.409850000000     0.008900000000    -0.177162   
N31      N      0.249540000000     0.093690000000     0.998010000000    -0.190711   
N32      N      0.251370000000     0.159480000000     0.999340000000    -0.16507    
N33      N      0.244550000000     0.494860000000     0.845390000000    -0.194451   
N34      N      0.246210000000     0.493760000000     0.911290000000    -0.174108   
N35      N      0.253220000000     0.505260000000     0.660920000000    -0.191304   
N36      N      0.253900000000     0.007920000000     0.595020000000    -0.179352   
N37      N      0.992760000000     0.251050000000     0.847270000000    -0.195821   
N38      N      0.991730000000     0.248580000000     0.913080000000    -0.177424   
N39      N      0.003290000000     0.250920000000     0.662820000000    -0.191398   
N40      N      0.005900000000     0.248840000000     0.597030000000    -0.172236   
N41      N      0.090360000000     0.499700000000     0.751660000000    -0.194162   
N42      N      0.156050000000     0.999730000000     0.748820000000    -0.172095   
N43      N      0.340420000000     0.000530000000     0.757790000000    -0.196148   
N44      N      0.406210000000     0.001090000000     0.757450000000    -0.179681   
N45      N      0.494340000000     0.409640000000     0.757330000000    -0.192833   
N46      N      0.494180000000     0.343870000000     0.755510000000    -0.174875   
N47      N      0.501780000000     0.094000000000     0.751830000000    -0.193716   
N48      N      0.501350000000     0.159750000000     0.751650000000    -0.175366   
N49      N      0.340760000000     0.754420000000     0.006770000000    -0.194228   
N50      N      0.406510000000     0.753260000000     0.510330000000    -0.17433    
N51      N      0.090250000000     0.745130000000     0.997630000000    -0.190115   
N52      N      0.156070000000     0.748950000000     0.998220000000    -0.170906   
N53      N      0.248450000000     0.844090000000     0.506390000000    -0.191683   
N54      N      0.250710000000     0.909850000000     0.508890000000    -0.172445   
N55      N      0.249540000000     0.593680000000     0.498010000000    -0.194095   
N56      N      0.251370000000     0.659480000000     0.499340000000    -0.175114   
N57      N      0.244550000000     0.994850000000     0.345390000000    -0.191413   
N58      N      0.246210000000     0.993760000000     0.411280000000    -0.171207   
N59      N      0.253220000000     0.005260000000     0.160920000000    -0.19425    
N60      N      0.253900000000     0.507920000000     0.095020000000    -0.174948   
N61      N      0.992760000000     0.751040000000     0.347270000000    -0.195834   
N62      N      0.991730000000     0.748580000000     0.413080000000    -0.177914   
N63      N      0.003290000000     0.750920000000     0.162820000000    -0.191386   
N64      N      0.005900000000     0.748840000000     0.097030000000    -0.172075   
N65      N      0.090360000000     0.999700000000     0.251660000000    -0.183279   
N66      N      0.156050000000     0.499730000000     0.248820000000    -0.174886   
N67      N      0.340420000000     0.500530000000     0.257790000000    -0.193132   
N68      N      0.406210000000     0.501090000000     0.257450000000    -0.175546   
N69      N      0.494340000000     0.909640000000     0.257330000000    -0.192113   
N70      N      0.494180000000     0.843870000000     0.255510000000    -0.174885   
N71      N      0.501780000000     0.594000000000     0.251830000000    -0.193901   
N72      N      0.501350000000     0.659750000000     0.251650000000    -0.175342   
N73      N      0.340760000000     0.754420000000     0.506770000000    -0.191359   
N74      N      0.406510000000     0.753260000000     0.010330000000    -0.178478   
N75      N      0.090250000000     0.745130000000     0.497630000000    -0.19349    
N76      N      0.156070000000     0.748950000000     0.498230000000    -0.173871   
N77      N      0.248450000000     0.844090000000     0.006390000000    -0.194535   
N78      N      0.250710000000     0.909850000000     0.008900000000    -0.17659    
N79      N      0.249540000000     0.593680000000     0.998010000000    -0.190895   
N80      N      0.251370000000     0.659480000000     0.999340000000    -0.16508    
N81      N      0.244550000000     0.994850000000     0.845390000000    -0.191388   
N82      N      0.246210000000     0.993760000000     0.911290000000    -0.170766   
N83      N      0.253220000000     0.005260000000     0.660920000000    -0.194228   
N84      N      0.253900000000     0.507920000000     0.595020000000    -0.175011   
N85      N      0.992760000000     0.751040000000     0.847270000000    -0.195791   
N86      N      0.991730000000     0.748580000000     0.913080000000    -0.177323   
N87      N      0.003290000000     0.750920000000     0.662820000000    -0.191367   
N88      N      0.005900000000     0.748840000000     0.597030000000    -0.17222    
N89      N      0.090360000000     0.999700000000     0.751660000000    -0.183261   
N90      N      0.156050000000     0.499730000000     0.748820000000    -0.174882   
N91      N      0.340420000000     0.500530000000     0.757790000000    -0.193116   
N92      N      0.406210000000     0.501090000000     0.757450000000    -0.175449   
N93      N      0.494340000000     0.909640000000     0.757330000000    -0.192074   
N94      N      0.494180000000     0.843870000000     0.755510000000    -0.174873   
N95      N      0.501780000000     0.594000000000     0.751830000000    -0.19383    
N96      N      0.501350000000     0.659750000000     0.751650000000    -0.175351   
N97      N      0.840760000000     0.254420000000     0.006770000000    -0.19427    
N98      N      0.906510000000     0.253260000000     0.510330000000    -0.174269   
N99      N      0.590250000000     0.245130000000     0.997630000000    -0.190619   
N100     N      0.656070000000     0.248950000000     0.998220000000    -0.170894   
N101     N      0.748440000000     0.344090000000     0.506390000000    -0.191698   
N102     N      0.750710000000     0.409850000000     0.508890000000    -0.173051   
N103     N      0.749540000000     0.093690000000     0.498010000000    -0.193944   
N104     N      0.751370000000     0.159480000000     0.499340000000    -0.175121   
N105     N      0.744550000000     0.494860000000     0.345390000000    -0.194504   
N106     N      0.746210000000     0.493760000000     0.411280000000    -0.174593   
N107     N      0.753220000000     0.505260000000     0.160920000000    -0.19133    
N108     N      0.753900000000     0.007920000000     0.095020000000    -0.179258   
N109     N      0.492760000000     0.251050000000     0.347270000000    -0.193778   
N110     N      0.491730000000     0.248580000000     0.413080000000    -0.175036   
N111     N      0.503290000000     0.250920000000     0.162820000000    -0.193669   
N112     N      0.505900000000     0.248840000000     0.097030000000    -0.174503   
N113     N      0.590360000000     0.499700000000     0.251660000000    -0.194675   
N114     N      0.656050000000     0.999730000000     0.248820000000    -0.172086   
N115     N      0.840420000000     0.000530000000     0.257790000000    -0.196186   
N116     N      0.906220000000     0.001090000000     0.257450000000    -0.179787   
N117     N      0.994350000000     0.409640000000     0.257330000000    -0.195907   
N118     N      0.994180000000     0.343870000000     0.255510000000    -0.176906   
N119     N      0.001780000000     0.094000000000     0.251830000000    -0.191335   
N120     N      0.001350000000     0.159750000000     0.251650000000    -0.17322    
N121     N      0.840760000000     0.254420000000     0.506770000000    -0.191394   
N122     N      0.906510000000     0.253260000000     0.010330000000    -0.178425   
N123     N      0.590250000000     0.245130000000     0.497630000000    -0.194016   
N124     N      0.656070000000     0.248950000000     0.498230000000    -0.173877   
N125     N      0.748440000000     0.344090000000     0.006390000000    -0.194567   
N126     N      0.750710000000     0.409850000000     0.008900000000    -0.177222   
N127     N      0.749540000000     0.093690000000     0.998010000000    -0.190733   
N128     N      0.751370000000     0.159480000000     0.999340000000    -0.165053   
N129     N      0.744550000000     0.494860000000     0.845390000000    -0.194467   
N130     N      0.746210000000     0.493760000000     0.911290000000    -0.174133   
N131     N      0.753220000000     0.505260000000     0.660920000000    -0.191309   
N132     N      0.753900000000     0.007920000000     0.595020000000    -0.17932    
N133     N      0.492760000000     0.251050000000     0.847270000000    -0.193745   
N134     N      0.491730000000     0.248580000000     0.913080000000    -0.174457   
N135     N      0.503290000000     0.250920000000     0.662820000000    -0.193646   
N136     N      0.505900000000     0.248840000000     0.597030000000    -0.174646   
N137     N      0.590360000000     0.499700000000     0.751660000000    -0.194631   
N138     N      0.656050000000     0.999730000000     0.748820000000    -0.172089   
N139     N      0.840420000000     0.000530000000     0.757790000000    -0.196166   
N140     N      0.906220000000     0.001090000000     0.757450000000    -0.179683   
N141     N      0.994350000000     0.409640000000     0.757330000000    -0.195858   
N142     N      0.994180000000     0.343870000000     0.755510000000    -0.176888   
N143     N      0.001780000000     0.094000000000     0.751830000000    -0.191272   
N144     N      0.001350000000     0.159750000000     0.751650000000    -0.173234   
N145     N      0.840760000000     0.754420000000     0.006770000000    -0.194248   
N146     N      0.906510000000     0.753260000000     0.510330000000    -0.174239   
N147     N      0.590250000000     0.745130000000     0.997630000000    -0.190586   
N148     N      0.656070000000     0.748950000000     0.998220000000    -0.170893   
N149     N      0.748440000000     0.844090000000     0.506390000000    -0.191683   
N150     N      0.750710000000     0.909850000000     0.508890000000    -0.172495   
N151     N      0.749540000000     0.593680000000     0.498010000000    -0.194123   
N152     N      0.751370000000     0.659480000000     0.499340000000    -0.175118   
N153     N      0.744550000000     0.994850000000     0.345390000000    -0.191423   
N154     N      0.746210000000     0.993760000000     0.411280000000    -0.171228   
N155     N      0.753220000000     0.005260000000     0.160920000000    -0.19426    
N156     N      0.753900000000     0.507920000000     0.095020000000    -0.17491    
N157     N      0.492760000000     0.751040000000     0.347270000000    -0.193754   
N158     N      0.491730000000     0.748580000000     0.413080000000    -0.174938   
N159     N      0.503290000000     0.750920000000     0.162820000000    -0.193633   
N160     N      0.505900000000     0.748840000000     0.097030000000    -0.174482   
N161     N      0.590360000000     0.999700000000     0.251660000000    -0.183704   
N162     N      0.656050000000     0.499730000000     0.248820000000    -0.174889   
N163     N      0.840420000000     0.500530000000     0.257790000000    -0.19315    
N164     N      0.906220000000     0.501090000000     0.257450000000    -0.175551   
N165     N      0.994350000000     0.909640000000     0.257330000000    -0.195134   
N166     N      0.994180000000     0.843870000000     0.255510000000    -0.176896   
N167     N      0.001780000000     0.594000000000     0.251830000000    -0.191451   
N168     N      0.001350000000     0.659750000000     0.251650000000    -0.173206   
N169     N      0.840760000000     0.754420000000     0.506770000000    -0.191376   
N170     N      0.906510000000     0.753260000000     0.010330000000    -0.178387   
N171     N      0.590250000000     0.745130000000     0.497630000000    -0.193974   
N172     N      0.656070000000     0.748950000000     0.498230000000    -0.173871   
N173     N      0.748440000000     0.844090000000     0.006390000000    -0.194542   
N174     N      0.750710000000     0.909850000000     0.008900000000    -0.176649   
N175     N      0.749540000000     0.593680000000     0.998010000000    -0.190917   
N176     N      0.751370000000     0.659480000000     0.999340000000    -0.165063   
N177     N      0.744550000000     0.994850000000     0.845390000000    -0.191397   
N178     N      0.746210000000     0.993760000000     0.911290000000    -0.170786   
N179     N      0.753220000000     0.005260000000     0.660920000000    -0.194237   
N180     N      0.753900000000     0.507920000000     0.595020000000    -0.174973   
N181     N      0.492760000000     0.751040000000     0.847270000000    -0.19372    
N182     N      0.491730000000     0.748580000000     0.913080000000    -0.174362   
N183     N      0.503290000000     0.750920000000     0.662820000000    -0.19361    
N184     N      0.505900000000     0.748840000000     0.597030000000    -0.174624   
N185     N      0.590360000000     0.999700000000     0.751660000000    -0.183684   
N186     N      0.656050000000     0.499730000000     0.748820000000    -0.174885   
N187     N      0.840420000000     0.500530000000     0.757790000000    -0.193134   
N188     N      0.906220000000     0.501090000000     0.757450000000    -0.175454   
N189     N      0.994350000000     0.909640000000     0.757330000000    -0.195087   
N190     N      0.994180000000     0.843870000000     0.755510000000    -0.176878   
N191     N      0.001780000000     0.594000000000     0.751830000000    -0.191387   
N192     N      0.001350000000     0.659750000000     0.751650000000    -0.17322    
O1       O      0.998420000000     0.045730000000     0.227010000000    -0.555935   
O2       O      0.494880000000     0.456160000000     0.229890000000    -0.555651   
O3       O      0.452540000000     0.001800000000     0.229860000000    -0.543943   
O4       O      0.042060000000     0.498490000000     0.227010000000    -0.550148   
O5       O      0.044230000000     0.002430000000     0.279800000000    -0.544361   
O6       O      0.454260000000     0.504310000000     0.282720000000    -0.544258   
O7       O      0.998770000000     0.457730000000     0.282670000000    -0.545968   
O8       O      0.501140000000     0.047660000000     0.279860000000    -0.551252   
O9       O      0.022290000000     0.297840000000     0.258000000000    -0.544282   
O10      O      0.025970000000     0.207950000000     0.256480000000    -0.54872    
O11      O      0.026870000000     0.254210000000     0.211770000000    -0.54731    
O12      O      0.021570000000     0.252890000000     0.301510000000    -0.551779   
O13      O      0.468860000000     0.249590000000     0.298280000000    -0.549414   
O14      O      0.474220000000     0.250060000000     0.208470000000    -0.54914    
O15      O      0.473270000000     0.205780000000     0.252260000000    -0.541866   
O16      O      0.469630000000     0.295460000000     0.252930000000    -0.539436   
O17      O      0.293310000000     0.474320000000     0.252360000000    -0.554501   
O18      O      0.203520000000     0.473380000000     0.249720000000    -0.54103    
O19      O      0.249630000000     0.476490000000     0.206850000000    -0.550455   
O20      O      0.247930000000     0.471200000000     0.296550000000    -0.551992   
O21      O      0.243350000000     0.023800000000     0.299710000000    -0.559811   
O22      O      0.252200000000     0.029120000000     0.210180000000    -0.541867   
O23      O      0.203140000000     0.026260000000     0.251580000000    -0.555549   
O24      O      0.292740000000     0.026650000000     0.259730000000    -0.54669    
O25      O      0.278250000000     0.508540000000     0.046680000000    -0.525608   
O26      O      0.274570000000     0.994830000000     0.457680000000    -0.530139   
O27      O      0.275730000000     0.046200000000     0.995270000000    -0.537227   
O28      O      0.276850000000     0.457220000000     0.508840000000    -0.523024   
O29      O      0.224080000000     0.456650000000     0.004980000000    -0.550068   
O30      O      0.223600000000     0.046450000000     0.504130000000    -0.551167   
O31      O      0.222090000000     0.500970000000     0.459440000000    -0.550707   
O32      O      0.225770000000     0.002280000000     0.049320000000    -0.549398   
O33      O      0.498290000000     0.222830000000     0.050120000000    -0.546045   
O34      O      0.994920000000     0.222190000000     0.460290000000    -0.535632   
O35      O      0.042140000000     0.220400000000     0.004140000000    -0.547018   
O36      O      0.452220000000     0.224820000000     0.506310000000    -0.545734   
O37      O      0.455160000000     0.277410000000     0.011420000000    -0.533893   
O38      O      0.043990000000     0.272910000000     0.498070000000    -0.545606   
O39      O      0.493980000000     0.275060000000     0.460220000000    -0.549214   
O40      O      0.006540000000     0.275060000000     0.049430000000    -0.527985   
O41      O      0.204710000000     0.252070000000     0.473970000000    -0.538205   
O42      O      0.294590000000     0.253360000000     0.478240000000    -0.543141   
O43      O      0.251300000000     0.207750000000     0.474400000000    -0.538365   
O44      O      0.248510000000     0.297680000000     0.477930000000    -0.545052   
O45      O      0.246310000000     0.295540000000     0.030750000000    -0.546176   
O46      O      0.248270000000     0.205790000000     0.027260000000    -0.54507    
O47      O      0.292180000000     0.252700000000     0.031120000000    -0.544293   
O48      O      0.202290000000     0.248730000000     0.026750000000    -0.553311   
O49      O      0.432200000000     0.273790000000     0.073000000000    -0.331245   
O50      O      0.391120000000     0.306560000000     0.074310000000    -0.234275   
O51      O      0.176050000000     0.310910000000     0.967740000000    -0.327204   
O52      O      0.143500000000     0.294990000000     0.929500000000    -0.241768   
O53      O      0.291120000000     0.432760000000     0.563990000000    -0.320265   
O54      O      0.265480000000     0.395020000000     0.090100000000    -0.238812   
O55      O      0.307240000000     0.146140000000     0.433930000000    -0.33874    
O56      O      0.311290000000     0.181820000000     0.472460000000    -0.238555   
O57      O      0.312630000000     0.439800000000     0.394050000000    -0.336885   
O58      O      0.278510000000     0.436350000000     0.433980000000    -0.236476   
O59      O      0.281700000000     0.067330000000     0.067740000000    -0.325869   
O60      O      0.265920000000     0.090130000000     0.112310000000    -0.239465   
O61      O      0.448480000000     0.192590000000     0.432730000000    -0.322676   
O62      O      0.415260000000     0.219380000000     0.401890000000    -0.243142   
O63      O      0.068210000000     0.270910000000     0.071580000000    -0.330961   
O64      O      0.565260000000     0.307450000000     0.109400000000    -0.235      
O65      O      0.179010000000     0.471720000000     0.187390000000    -0.32839    
O66      O      0.142420000000     0.435100000000     0.196900000000    -0.235782   
O67      O      0.420650000000     0.458840000000     0.195370000000    -0.321393   
O68      O      0.404630000000     0.425440000000     0.232990000000    -0.22977    
O69      O      0.472990000000     0.320370000000     0.191430000000    -0.328107   
O70      O      0.435140000000     0.356530000000     0.197080000000    -0.227409   
O71      O      0.441550000000     0.174380000000     0.207110000000    -0.322479   
O72      O      0.479450000000     0.156930000000     0.174790000000    -0.241665   
O73      O      0.998420000000     0.045730000000     0.727010000000    -0.55582    
O74      O      0.494880000000     0.456160000000     0.729890000000    -0.55558    
O75      O      0.452540000000     0.001800000000     0.729860000000    -0.5438     
O76      O      0.042060000000     0.498490000000     0.727010000000    -0.550047   
O77      O      0.044230000000     0.002430000000     0.779800000000    -0.544226   
O78      O      0.454260000000     0.504310000000     0.782730000000    -0.543883   
O79      O      0.998770000000     0.457730000000     0.782670000000    -0.545792   
O80      O      0.501140000000     0.047660000000     0.779860000000    -0.55111    
O81      O      0.022290000000     0.297840000000     0.758000000000    -0.544242   
O82      O      0.025970000000     0.207950000000     0.756480000000    -0.548651   
O83      O      0.026870000000     0.254210000000     0.711770000000    -0.547246   
O84      O      0.021570000000     0.252890000000     0.801520000000    -0.551619   
O85      O      0.468860000000     0.249590000000     0.798290000000    -0.549256   
O86      O      0.474220000000     0.250060000000     0.708470000000    -0.549113   
O87      O      0.473270000000     0.205780000000     0.752270000000    -0.541838   
O88      O      0.469630000000     0.295460000000     0.752930000000    -0.539379   
O89      O      0.293310000000     0.474320000000     0.752360000000    -0.554479   
O90      O      0.203520000000     0.473380000000     0.749720000000    -0.541003   
O91      O      0.249630000000     0.476490000000     0.706850000000    -0.55048    
O92      O      0.247930000000     0.471200000000     0.796550000000    -0.551912   
O93      O      0.243350000000     0.023800000000     0.799710000000    -0.559553   
O94      O      0.252200000000     0.029120000000     0.710180000000    -0.54202    
O95      O      0.203140000000     0.026260000000     0.751580000000    -0.555506   
O96      O      0.292740000000     0.026650000000     0.759730000000    -0.546645   
O97      O      0.278250000000     0.508540000000     0.546680000000    -0.527661   
O98      O      0.274570000000     0.994830000000     0.957680000000    -0.522974   
O99      O      0.275730000000     0.046200000000     0.495270000000    -0.542871   
O100     O      0.276850000000     0.457220000000     0.008840000000    -0.522195   
O101     O      0.224080000000     0.456650000000     0.504980000000    -0.548541   
O102     O      0.223600000000     0.046450000000     0.004130000000    -0.558141   
O103     O      0.222090000000     0.500970000000     0.959440000000    -0.54442    
O104     O      0.225770000000     0.002280000000     0.549320000000    -0.550615   
O105     O      0.498290000000     0.222830000000     0.550120000000    -0.54719    
O106     O      0.994920000000     0.222190000000     0.960290000000    -0.529436   
O107     O      0.042140000000     0.220400000000     0.504140000000    -0.540039   
O108     O      0.452220000000     0.224820000000     0.006310000000    -0.547427   
O109     O      0.455160000000     0.277410000000     0.511420000000    -0.534917   
O110     O      0.043990000000     0.272910000000     0.998080000000    -0.539875   
O111     O      0.493980000000     0.275060000000     0.960220000000    -0.541787   
O112     O      0.006540000000     0.275060000000     0.549430000000    -0.529981   
O113     O      0.204710000000     0.252070000000     0.973970000000    -0.540048   
O114     O      0.294590000000     0.253360000000     0.978240000000    -0.536314   
O115     O      0.251300000000     0.207750000000     0.974410000000    -0.530313   
O116     O      0.248510000000     0.297680000000     0.977930000000    -0.538209   
O117     O      0.246310000000     0.295540000000     0.530750000000    -0.548748   
O118     O      0.248270000000     0.205790000000     0.527260000000    -0.549052   
O119     O      0.292180000000     0.252700000000     0.531120000000    -0.546864   
O120     O      0.202290000000     0.248730000000     0.526750000000    -0.547219   
O121     O      0.432200000000     0.273790000000     0.573010000000    -0.331337   
O122     O      0.391120000000     0.306560000000     0.574310000000    -0.233616   
O123     O      0.176050000000     0.310910000000     0.467740000000    -0.329101   
O124     O      0.143500000000     0.294990000000     0.429500000000    -0.242466   
O125     O      0.291120000000     0.432760000000     0.063990000000    -0.320668   
O126     O      0.265480000000     0.395020000000     0.590100000000    -0.238537   
O127     O      0.307240000000     0.146140000000     0.933930000000    -0.338201   
O128     O      0.311290000000     0.181820000000     0.972460000000    -0.236063   
O129     O      0.312630000000     0.439800000000     0.894050000000    -0.336417   
O130     O      0.278510000000     0.436350000000     0.933980000000    -0.234398   
O131     O      0.281700000000     0.067330000000     0.567740000000    -0.324975   
O132     O      0.265920000000     0.090130000000     0.612310000000    -0.239114   
O133     O      0.448480000000     0.192590000000     0.932730000000    -0.321614   
O134     O      0.415260000000     0.219380000000     0.901890000000    -0.242664   
O135     O      0.068210000000     0.270910000000     0.571580000000    -0.330383   
O136     O      0.565260000000     0.307450000000     0.609400000000    -0.234392   
O137     O      0.179010000000     0.471720000000     0.687390000000    -0.328352   
O138     O      0.142420000000     0.435100000000     0.696900000000    -0.235576   
O139     O      0.420650000000     0.458840000000     0.695370000000    -0.321252   
O140     O      0.404630000000     0.425440000000     0.732990000000    -0.229677   
O141     O      0.472990000000     0.320370000000     0.691430000000    -0.32807    
O142     O      0.435140000000     0.356530000000     0.697080000000    -0.227286   
O143     O      0.441550000000     0.174380000000     0.707110000000    -0.322442   
O144     O      0.479450000000     0.156930000000     0.674790000000    -0.241366   
O145     O      0.998420000000     0.545730000000     0.227010000000    -0.558336   
O146     O      0.494880000000     0.956160000000     0.229890000000    -0.547865   
O147     O      0.452540000000     0.501800000000     0.229860000000    -0.544412   
O148     O      0.042060000000     0.998490000000     0.227010000000    -0.533399   
O149     O      0.044230000000     0.502430000000     0.279800000000    -0.547902   
O150     O      0.454260000000     0.004310000000     0.282720000000    -0.544581   
O151     O      0.998770000000     0.957730000000     0.282670000000    -0.538817   
O152     O      0.501140000000     0.547660000000     0.279860000000    -0.55259    
O153     O      0.022290000000     0.797850000000     0.258000000000    -0.544089   
O154     O      0.025970000000     0.707950000000     0.256480000000    -0.548615   
O155     O      0.026870000000     0.754210000000     0.211770000000    -0.54723    
O156     O      0.021570000000     0.752890000000     0.301510000000    -0.55171    
O157     O      0.468860000000     0.749580000000     0.298280000000    -0.549364   
O158     O      0.474220000000     0.750060000000     0.208470000000    -0.549152   
O159     O      0.473270000000     0.705780000000     0.252260000000    -0.541844   
O160     O      0.469630000000     0.795460000000     0.252930000000    -0.539445   
O161     O      0.293310000000     0.974320000000     0.252360000000    -0.547903   
O162     O      0.203520000000     0.973380000000     0.249720000000    -0.543362   
O163     O      0.249630000000     0.976480000000     0.206850000000    -0.543879   
O164     O      0.247930000000     0.971200000000     0.296550000000    -0.554047   
O165     O      0.243350000000     0.523800000000     0.299710000000    -0.553176   
O166     O      0.252200000000     0.529120000000     0.210180000000    -0.544033   
O167     O      0.203140000000     0.526260000000     0.251580000000    -0.548847   
O168     O      0.292740000000     0.526660000000     0.259730000000    -0.548615   
O169     O      0.278250000000     0.008540000000     0.046680000000    -0.524857   
O170     O      0.274570000000     0.494830000000     0.457680000000    -0.535915   
O171     O      0.275730000000     0.546200000000     0.995270000000    -0.539175   
O172     O      0.276850000000     0.957220000000     0.508840000000    -0.515661   
O173     O      0.224080000000     0.956650000000     0.004980000000    -0.543593   
O174     O      0.223600000000     0.546450000000     0.504130000000    -0.552339   
O175     O      0.222090000000     0.000970000000     0.459440000000    -0.557898   
O176     O      0.225770000000     0.502280000000     0.049320000000    -0.547799   
O177     O      0.498290000000     0.722830000000     0.050120000000    -0.545919   
O178     O      0.994920000000     0.722180000000     0.460290000000    -0.535335   
O179     O      0.042140000000     0.720400000000     0.004140000000    -0.546875   
O180     O      0.452220000000     0.724820000000     0.506310000000    -0.54565    
O181     O      0.455160000000     0.777410000000     0.011420000000    -0.533749   
O182     O      0.043990000000     0.772910000000     0.498070000000    -0.545496   
O183     O      0.493980000000     0.775060000000     0.460220000000    -0.548972   
O184     O      0.006540000000     0.775060000000     0.049430000000    -0.527893   
O185     O      0.204710000000     0.752070000000     0.473970000000    -0.538192   
O186     O      0.294590000000     0.753360000000     0.478240000000    -0.543121   
O187     O      0.251300000000     0.707750000000     0.474400000000    -0.538351   
O188     O      0.248510000000     0.797680000000     0.477930000000    -0.545021   
O189     O      0.246310000000     0.795540000000     0.030750000000    -0.546145   
O190     O      0.248270000000     0.705790000000     0.027260000000    -0.545059   
O191     O      0.292180000000     0.752700000000     0.031120000000    -0.544288   
O192     O      0.202290000000     0.748730000000     0.026750000000    -0.553265   
O193     O      0.432200000000     0.773790000000     0.073000000000    -0.331195   
O194     O      0.391120000000     0.806560000000     0.074310000000    -0.233925   
O195     O      0.176050000000     0.810900000000     0.967740000000    -0.327001   
O196     O      0.143500000000     0.795000000000     0.929500000000    -0.241469   
O197     O      0.291120000000     0.932760000000     0.563990000000    -0.31909    
O198     O      0.265480000000     0.895020000000     0.090100000000    -0.238415   
O199     O      0.307240000000     0.646140000000     0.433930000000    -0.338433   
O200     O      0.311290000000     0.681820000000     0.472460000000    -0.238476   
O201     O      0.312630000000     0.939800000000     0.394050000000    -0.335566   
O202     O      0.278510000000     0.936360000000     0.433980000000    -0.235855   
O203     O      0.281700000000     0.567330000000     0.067740000000    -0.325625   
O204     O      0.265920000000     0.590130000000     0.112310000000    -0.2391     
O205     O      0.448480000000     0.692590000000     0.432730000000    -0.322526   
O206     O      0.415260000000     0.719380000000     0.401890000000    -0.243019   
O207     O      0.068210000000     0.770910000000     0.071580000000    -0.330892   
O208     O      0.565260000000     0.807450000000     0.109400000000    -0.234575   
O209     O      0.179010000000     0.971720000000     0.187390000000    -0.326542   
O210     O      0.142420000000     0.935110000000     0.196900000000    -0.235027   
O211     O      0.420650000000     0.958840000000     0.195370000000    -0.318309   
O212     O      0.404630000000     0.925440000000     0.232990000000    -0.228736   
O213     O      0.472990000000     0.820370000000     0.191430000000    -0.328007   
O214     O      0.435140000000     0.856530000000     0.197080000000    -0.227076   
O215     O      0.441550000000     0.674380000000     0.207110000000    -0.322393   
O216     O      0.479450000000     0.656930000000     0.174790000000    -0.241265   
O217     O      0.998420000000     0.545730000000     0.727010000000    -0.558217   
O218     O      0.494880000000     0.956160000000     0.729890000000    -0.547807   
O219     O      0.452540000000     0.501800000000     0.729860000000    -0.544267   
O220     O      0.042060000000     0.998490000000     0.727010000000    -0.53333    
O221     O      0.044230000000     0.502430000000     0.779800000000    -0.547759   
O222     O      0.454260000000     0.004310000000     0.782730000000    -0.544207   
O223     O      0.998770000000     0.957730000000     0.782670000000    -0.53866    
O224     O      0.501140000000     0.547660000000     0.779860000000    -0.552445   
O225     O      0.022290000000     0.797850000000     0.758000000000    -0.544049   
O226     O      0.025970000000     0.707950000000     0.756480000000    -0.548545   
O227     O      0.026870000000     0.754210000000     0.711770000000    -0.547166   
O228     O      0.021570000000     0.752890000000     0.801520000000    -0.55155    
O229     O      0.468860000000     0.749580000000     0.798290000000    -0.549206   
O230     O      0.474220000000     0.750060000000     0.708470000000    -0.549125   
O231     O      0.473270000000     0.705780000000     0.752270000000    -0.541816   
O232     O      0.469630000000     0.795460000000     0.752930000000    -0.539388   
O233     O      0.293310000000     0.974320000000     0.752360000000    -0.547894   
O234     O      0.203520000000     0.973380000000     0.749720000000    -0.54333    
O235     O      0.249630000000     0.976480000000     0.706850000000    -0.543911   
O236     O      0.247930000000     0.971200000000     0.796550000000    -0.553961   
O237     O      0.243350000000     0.523800000000     0.799710000000    -0.552938   
O238     O      0.252200000000     0.529120000000     0.710180000000    -0.544185   
O239     O      0.203140000000     0.526260000000     0.751580000000    -0.54882    
O240     O      0.292740000000     0.526660000000     0.759730000000    -0.548567   
O241     O      0.278250000000     0.008540000000     0.546680000000    -0.526899   
O242     O      0.274570000000     0.494830000000     0.957680000000    -0.52871    
O243     O      0.275730000000     0.546200000000     0.495270000000    -0.544826   
O244     O      0.276850000000     0.957220000000     0.008840000000    -0.514838   
O245     O      0.224080000000     0.956650000000     0.504980000000    -0.542068   
O246     O      0.223600000000     0.546450000000     0.004130000000    -0.559313   
O247     O      0.222090000000     0.000970000000     0.959440000000    -0.551578   
O248     O      0.225770000000     0.502280000000     0.549320000000    -0.549017   
O249     O      0.498290000000     0.722830000000     0.550120000000    -0.547063   
O250     O      0.994920000000     0.722180000000     0.960290000000    -0.52915    
O251     O      0.042140000000     0.720400000000     0.504140000000    -0.539909   
O252     O      0.452220000000     0.724820000000     0.006310000000    -0.547342   
O253     O      0.455160000000     0.777410000000     0.511420000000    -0.534769   
O254     O      0.043990000000     0.772910000000     0.998080000000    -0.539784   
O255     O      0.493980000000     0.775060000000     0.960220000000    -0.541565   
O256     O      0.006540000000     0.775060000000     0.549430000000    -0.529885   
O257     O      0.204710000000     0.752070000000     0.973970000000    -0.540031   
O258     O      0.294590000000     0.753360000000     0.978240000000    -0.536309   
O259     O      0.251300000000     0.707750000000     0.974410000000    -0.530309   
O260     O      0.248510000000     0.797680000000     0.977930000000    -0.538199   
O261     O      0.246310000000     0.795540000000     0.530750000000    -0.548711   
O262     O      0.248270000000     0.705790000000     0.527260000000    -0.549036   
O263     O      0.292180000000     0.752700000000     0.531120000000    -0.546855   
O264     O      0.202290000000     0.748730000000     0.526750000000    -0.547186   
O265     O      0.432200000000     0.773790000000     0.573010000000    -0.331287   
O266     O      0.391120000000     0.806560000000     0.574310000000    -0.233267   
O267     O      0.176050000000     0.810900000000     0.467740000000    -0.328891   
O268     O      0.143500000000     0.795000000000     0.429500000000    -0.242164   
O269     O      0.291120000000     0.932760000000     0.063990000000    -0.319492   
O270     O      0.265480000000     0.895020000000     0.590100000000    -0.238141   
O271     O      0.307240000000     0.646140000000     0.933930000000    -0.337896   
O272     O      0.311290000000     0.681820000000     0.972460000000    -0.235989   
O273     O      0.312630000000     0.939800000000     0.894050000000    -0.335104   
O274     O      0.278510000000     0.936360000000     0.933980000000    -0.233788   
O275     O      0.281700000000     0.567330000000     0.567740000000    -0.324731   
O276     O      0.265920000000     0.590130000000     0.612310000000    -0.238749   
O277     O      0.448480000000     0.692590000000     0.932730000000    -0.321466   
O278     O      0.415260000000     0.719380000000     0.901890000000    -0.242542   
O279     O      0.068210000000     0.770910000000     0.571580000000    -0.330316   
O280     O      0.565260000000     0.807450000000     0.609400000000    -0.233969   
O281     O      0.179010000000     0.971720000000     0.687390000000    -0.326508   
O282     O      0.142420000000     0.935110000000     0.696900000000    -0.234823   
O283     O      0.420650000000     0.958840000000     0.695370000000    -0.318174   
O284     O      0.404630000000     0.925440000000     0.732990000000    -0.228646   
O285     O      0.472990000000     0.820370000000     0.691430000000    -0.327971   
O286     O      0.435140000000     0.856530000000     0.697080000000    -0.226954   
O287     O      0.441550000000     0.674380000000     0.707110000000    -0.322356   
O288     O      0.479450000000     0.656930000000     0.674790000000    -0.240965   
O289     O      0.498420000000     0.045730000000     0.227010000000    -0.550864   
O290     O      0.994880000000     0.456160000000     0.229890000000    -0.556008   
O291     O      0.952540000000     0.001800000000     0.229860000000    -0.543154   
O292     O      0.542060000000     0.498490000000     0.227010000000    -0.554945   
O293     O      0.544240000000     0.002430000000     0.279800000000    -0.549495   
O294     O      0.954260000000     0.504310000000     0.282720000000    -0.543044   
O295     O      0.498770000000     0.457730000000     0.282670000000    -0.545897   
O296     O      0.001140000000     0.047660000000     0.279860000000    -0.547047   
O297     O      0.522290000000     0.297840000000     0.258000000000    -0.549039   
O298     O      0.525970000000     0.207950000000     0.256480000000    -0.547272   
O299     O      0.526870000000     0.254210000000     0.211770000000    -0.545887   
O300     O      0.521570000000     0.252890000000     0.301510000000    -0.556424   
O301     O      0.968860000000     0.249590000000     0.298280000000    -0.547968   
O302     O      0.974220000000     0.250060000000     0.208470000000    -0.553607   
O303     O      0.973270000000     0.205780000000     0.252260000000    -0.546563   
O304     O      0.969630000000     0.295460000000     0.252930000000    -0.537821   
O305     O      0.793310000000     0.474320000000     0.252360000000    -0.55451    
O306     O      0.703520000000     0.473380000000     0.249720000000    -0.541067   
O307     O      0.749630000000     0.476490000000     0.206850000000    -0.550454   
O308     O      0.747930000000     0.471200000000     0.296550000000    -0.552026   
O309     O      0.743350000000     0.023800000000     0.299710000000    -0.559848   
O310     O      0.752200000000     0.029120000000     0.210180000000    -0.541892   
O311     O      0.703140000000     0.026260000000     0.251580000000    -0.555631   
O312     O      0.792740000000     0.026650000000     0.259730000000    -0.546704   
O313     O      0.778260000000     0.508540000000     0.046680000000    -0.525442   
O314     O      0.774570000000     0.994830000000     0.457680000000    -0.530176   
O315     O      0.775730000000     0.046200000000     0.995270000000    -0.537153   
O316     O      0.776850000000     0.457220000000     0.508840000000    -0.523065   
O317     O      0.724080000000     0.456650000000     0.004980000000    -0.550193   
O318     O      0.723600000000     0.046450000000     0.504130000000    -0.551396   
O319     O      0.722090000000     0.500970000000     0.459440000000    -0.550827   
O320     O      0.725770000000     0.002280000000     0.049320000000    -0.549443   
O321     O      0.998290000000     0.222830000000     0.050120000000    -0.551121   
O322     O      0.494920000000     0.222190000000     0.460290000000    -0.535029   
O323     O      0.542140000000     0.220400000000     0.004140000000    -0.551858   
O324     O      0.952220000000     0.224820000000     0.506310000000    -0.545088   
O325     O      0.955150000000     0.277410000000     0.011420000000    -0.532584   
O326     O      0.543990000000     0.272910000000     0.498070000000    -0.551158   
O327     O      0.993980000000     0.275060000000     0.460220000000    -0.548983   
O328     O      0.506540000000     0.275060000000     0.049430000000    -0.532218   
O329     O      0.704700000000     0.252070000000     0.473970000000    -0.538118   
O330     O      0.794590000000     0.253360000000     0.478240000000    -0.543094   
O331     O      0.751300000000     0.207750000000     0.474400000000    -0.538352   
O332     O      0.748510000000     0.297680000000     0.477930000000    -0.545021   
O333     O      0.746310000000     0.295540000000     0.030750000000    -0.546206   
O334     O      0.748270000000     0.205790000000     0.027260000000    -0.545086   
O335     O      0.792180000000     0.252700000000     0.031120000000    -0.544285   
O336     O      0.702290000000     0.248730000000     0.026750000000    -0.553415   
O337     O      0.932200000000     0.273790000000     0.073000000000    -0.331717   
O338     O      0.891120000000     0.306560000000     0.074310000000    -0.23459    
O339     O      0.676050000000     0.310910000000     0.967740000000    -0.327317   
O340     O      0.643500000000     0.294990000000     0.929500000000    -0.242149   
O341     O      0.791120000000     0.432760000000     0.563990000000    -0.320327   
O342     O      0.765480000000     0.395020000000     0.090100000000    -0.238877   
O343     O      0.807230000000     0.146140000000     0.433930000000    -0.338687   
O344     O      0.811290000000     0.181820000000     0.472460000000    -0.238596   
O345     O      0.812630000000     0.439800000000     0.394050000000    -0.336988   
O346     O      0.778510000000     0.436350000000     0.433980000000    -0.236548   
O347     O      0.781690000000     0.067330000000     0.067740000000    -0.325929   
O348     O      0.765920000000     0.090130000000     0.112310000000    -0.239579   
O349     O      0.948480000000     0.192590000000     0.432730000000    -0.323254   
O350     O      0.915260000000     0.219380000000     0.401890000000    -0.243397   
O351     O      0.568210000000     0.270910000000     0.071580000000    -0.331383   
O352     O      0.065260000000     0.307450000000     0.109400000000    -0.233856   
O353     O      0.679010000000     0.471720000000     0.187390000000    -0.328533   
O354     O      0.642420000000     0.435100000000     0.196900000000    -0.236327   
O355     O      0.920650000000     0.458840000000     0.195370000000    -0.321646   
O356     O      0.904630000000     0.425440000000     0.232990000000    -0.229947   
O357     O      0.972990000000     0.320370000000     0.191430000000    -0.32968    
O358     O      0.935140000000     0.356530000000     0.197080000000    -0.22779    
O359     O      0.941550000000     0.174380000000     0.207110000000    -0.322954   
O360     O      0.979460000000     0.156930000000     0.174790000000    -0.243345   
O361     O      0.498420000000     0.045730000000     0.727010000000    -0.550761   
O362     O      0.994880000000     0.456160000000     0.729890000000    -0.555937   
O363     O      0.952540000000     0.001800000000     0.729860000000    -0.543012   
O364     O      0.542060000000     0.498490000000     0.727010000000    -0.554833   
O365     O      0.544240000000     0.002430000000     0.779800000000    -0.549341   
O366     O      0.954260000000     0.504310000000     0.782730000000    -0.542673   
O367     O      0.498770000000     0.457730000000     0.782670000000    -0.54572    
O368     O      0.001140000000     0.047660000000     0.779860000000    -0.546923   
O369     O      0.522290000000     0.297840000000     0.758000000000    -0.548985   
O370     O      0.525970000000     0.207950000000     0.756480000000    -0.547207   
O371     O      0.526870000000     0.254210000000     0.711770000000    -0.545827   
O372     O      0.521570000000     0.252890000000     0.801520000000    -0.556248   
O373     O      0.968860000000     0.249590000000     0.798290000000    -0.547814   
O374     O      0.974220000000     0.250060000000     0.708470000000    -0.55357    
O375     O      0.973270000000     0.205780000000     0.752270000000    -0.546521   
O376     O      0.969630000000     0.295460000000     0.752930000000    -0.537769   
O377     O      0.793310000000     0.474320000000     0.752360000000    -0.554488   
O378     O      0.703520000000     0.473380000000     0.749720000000    -0.54104    
O379     O      0.749630000000     0.476490000000     0.706850000000    -0.550479   
O380     O      0.747930000000     0.471200000000     0.796550000000    -0.551946   
O381     O      0.743350000000     0.023800000000     0.799710000000    -0.55959    
O382     O      0.752200000000     0.029120000000     0.710180000000    -0.542045   
O383     O      0.703140000000     0.026260000000     0.751580000000    -0.555588   
O384     O      0.792740000000     0.026650000000     0.759730000000    -0.546659   
O385     O      0.778260000000     0.508540000000     0.546680000000    -0.527496   
O386     O      0.774570000000     0.994830000000     0.957680000000    -0.523      
O387     O      0.775730000000     0.046200000000     0.495270000000    -0.542804   
O388     O      0.776850000000     0.457220000000     0.008840000000    -0.522234   
O389     O      0.724080000000     0.456650000000     0.504980000000    -0.548662   
O390     O      0.723600000000     0.046450000000     0.004130000000    -0.558389   
O391     O      0.722090000000     0.500970000000     0.959440000000    -0.544523   
O392     O      0.725770000000     0.002280000000     0.549320000000    -0.550661   
O393     O      0.998290000000     0.222830000000     0.550120000000    -0.552263   
O394     O      0.494920000000     0.222190000000     0.960290000000    -0.528833   
O395     O      0.542140000000     0.220400000000     0.504140000000    -0.544844   
O396     O      0.952220000000     0.224820000000     0.006310000000    -0.546781   
O397     O      0.955150000000     0.277410000000     0.511420000000    -0.533599   
O398     O      0.543990000000     0.272910000000     0.998080000000    -0.545389   
O399     O      0.993980000000     0.275060000000     0.960220000000    -0.54156    
O400     O      0.506540000000     0.275060000000     0.549430000000    -0.534218   
O401     O      0.704700000000     0.252070000000     0.973970000000    -0.539968   
O402     O      0.794590000000     0.253360000000     0.978240000000    -0.536259   
O403     O      0.751300000000     0.207750000000     0.974410000000    -0.530284   
O404     O      0.748510000000     0.297680000000     0.977930000000    -0.538165   
O405     O      0.746310000000     0.295540000000     0.530750000000    -0.548782   
O406     O      0.748270000000     0.205790000000     0.527260000000    -0.549076   
O407     O      0.792180000000     0.252700000000     0.531120000000    -0.54686    
O408     O      0.702290000000     0.248730000000     0.526750000000    -0.547303   
O409     O      0.932200000000     0.273790000000     0.573010000000    -0.331808   
O410     O      0.891120000000     0.306560000000     0.574310000000    -0.233931   
O411     O      0.676050000000     0.310910000000     0.467740000000    -0.329221   
O412     O      0.643500000000     0.294990000000     0.429500000000    -0.242852   
O413     O      0.791120000000     0.432760000000     0.063990000000    -0.320729   
O414     O      0.765480000000     0.395020000000     0.590100000000    -0.238601   
O415     O      0.807230000000     0.146140000000     0.933930000000    -0.338148   
O416     O      0.811290000000     0.181820000000     0.972460000000    -0.2361     
O417     O      0.812630000000     0.439800000000     0.894050000000    -0.336519   
O418     O      0.778510000000     0.436350000000     0.933980000000    -0.234467   
O419     O      0.781690000000     0.067330000000     0.567740000000    -0.325034   
O420     O      0.765920000000     0.090130000000     0.612310000000    -0.239228   
O421     O      0.948480000000     0.192590000000     0.932730000000    -0.322191   
O422     O      0.915260000000     0.219380000000     0.901890000000    -0.242918   
O423     O      0.568210000000     0.270910000000     0.571580000000    -0.330801   
O424     O      0.065260000000     0.307450000000     0.609400000000    -0.233253   
O425     O      0.679010000000     0.471720000000     0.687390000000    -0.328495   
O426     O      0.642420000000     0.435100000000     0.696900000000    -0.23612    
O427     O      0.920650000000     0.458840000000     0.695370000000    -0.321505   
O428     O      0.904630000000     0.425440000000     0.732990000000    -0.229854   
O429     O      0.972990000000     0.320370000000     0.691430000000    -0.329642   
O430     O      0.935140000000     0.356530000000     0.697080000000    -0.227667   
O431     O      0.941550000000     0.174380000000     0.707110000000    -0.322915   
O432     O      0.979460000000     0.156930000000     0.674790000000    -0.243045   
O433     O      0.498420000000     0.545730000000     0.227010000000    -0.553272   
O434     O      0.994880000000     0.956160000000     0.229890000000    -0.548238   
O435     O      0.952540000000     0.501800000000     0.229860000000    -0.543611   
O436     O      0.542060000000     0.998490000000     0.227010000000    -0.538108   
O437     O      0.544240000000     0.502430000000     0.279800000000    -0.553057   
O438     O      0.954260000000     0.004310000000     0.282720000000    -0.543369   
O439     O      0.498770000000     0.957730000000     0.282670000000    -0.538736   
O440     O      0.001140000000     0.547660000000     0.279860000000    -0.548382   
O441     O      0.522290000000     0.797850000000     0.258000000000    -0.548833   
O442     O      0.525970000000     0.707950000000     0.256480000000    -0.54717    
O443     O      0.526870000000     0.754210000000     0.211770000000    -0.545811   
O444     O      0.521570000000     0.752890000000     0.301510000000    -0.556345   
O445     O      0.968860000000     0.749580000000     0.298280000000    -0.547921   
O446     O      0.974220000000     0.750060000000     0.208470000000    -0.553609   
O447     O      0.973270000000     0.705780000000     0.252260000000    -0.546534   
O448     O      0.969630000000     0.795460000000     0.252930000000    -0.537833   
O449     O      0.793310000000     0.974320000000     0.252360000000    -0.547909   
O450     O      0.703520000000     0.973380000000     0.249720000000    -0.543404   
O451     O      0.749630000000     0.976480000000     0.206850000000    -0.543869   
O452     O      0.747930000000     0.971200000000     0.296550000000    -0.554085   
O453     O      0.743350000000     0.523800000000     0.299710000000    -0.553202   
O454     O      0.752200000000     0.529120000000     0.210180000000    -0.544061   
O455     O      0.703140000000     0.526260000000     0.251580000000    -0.548912   
O456     O      0.792740000000     0.526660000000     0.259730000000    -0.548631   
O457     O      0.778260000000     0.008540000000     0.046680000000    -0.52469    
O458     O      0.774570000000     0.494830000000     0.457680000000    -0.535957   
O459     O      0.775730000000     0.546200000000     0.995270000000    -0.539102   
O460     O      0.776850000000     0.957220000000     0.508840000000    -0.515695   
O461     O      0.724080000000     0.956650000000     0.004980000000    -0.543705   
O462     O      0.723600000000     0.546450000000     0.504130000000    -0.55257    
O463     O      0.722090000000     0.000970000000     0.459440000000    -0.558029   
O464     O      0.725770000000     0.502280000000     0.049320000000    -0.547842   
O465     O      0.998290000000     0.722830000000     0.050120000000    -0.550986   
O466     O      0.494920000000     0.722180000000     0.460290000000    -0.534732   
O467     O      0.542140000000     0.720400000000     0.004140000000    -0.551708   
O468     O      0.952220000000     0.724820000000     0.506310000000    -0.545005   
O469     O      0.955150000000     0.777410000000     0.011420000000    -0.532443   
O470     O      0.543990000000     0.772910000000     0.498070000000    -0.551035   
O471     O      0.993980000000     0.775060000000     0.460220000000    -0.548742   
O472     O      0.506540000000     0.775060000000     0.049430000000    -0.532112   
O473     O      0.704700000000     0.752070000000     0.473970000000    -0.538106   
O474     O      0.794590000000     0.753360000000     0.478240000000    -0.543074   
O475     O      0.751300000000     0.707750000000     0.474400000000    -0.538337   
O476     O      0.748510000000     0.797680000000     0.477930000000    -0.544991   
O477     O      0.746310000000     0.795540000000     0.030750000000    -0.546175   
O478     O      0.748270000000     0.705790000000     0.027260000000    -0.545075   
O479     O      0.792180000000     0.752700000000     0.031120000000    -0.54428    
O480     O      0.702290000000     0.748730000000     0.026750000000    -0.553369   
O481     O      0.932200000000     0.773790000000     0.073000000000    -0.331665   
O482     O      0.891120000000     0.806560000000     0.074310000000    -0.23424    
O483     O      0.676050000000     0.810900000000     0.967740000000    -0.327113   
O484     O      0.643500000000     0.795000000000     0.929500000000    -0.241848   
O485     O      0.791120000000     0.932760000000     0.563990000000    -0.31915    
O486     O      0.765480000000     0.895020000000     0.090100000000    -0.238479   
O487     O      0.807230000000     0.646140000000     0.433930000000    -0.33838    
O488     O      0.811290000000     0.681820000000     0.472460000000    -0.238518   
O489     O      0.812630000000     0.939800000000     0.394050000000    -0.335668   
O490     O      0.778510000000     0.936360000000     0.433980000000    -0.235926   
O491     O      0.781690000000     0.567330000000     0.067740000000    -0.325686   
O492     O      0.765920000000     0.590130000000     0.112310000000    -0.239213   
O493     O      0.948480000000     0.692590000000     0.432730000000    -0.323104   
O494     O      0.915260000000     0.719380000000     0.401890000000    -0.243274   
O495     O      0.568210000000     0.770910000000     0.071580000000    -0.331313   
O496     O      0.065260000000     0.807450000000     0.109400000000    -0.233438   
O497     O      0.679010000000     0.971720000000     0.187390000000    -0.32668    
O498     O      0.642420000000     0.935110000000     0.196900000000    -0.235567   
O499     O      0.920650000000     0.958840000000     0.195370000000    -0.318563   
O500     O      0.904630000000     0.925440000000     0.232990000000    -0.228914   
O501     O      0.972990000000     0.820370000000     0.191430000000    -0.329578   
O502     O      0.935140000000     0.856530000000     0.197080000000    -0.227457   
O503     O      0.941550000000     0.674380000000     0.207110000000    -0.322868   
O504     O      0.979460000000     0.656930000000     0.174790000000    -0.242946   
O505     O      0.498420000000     0.545730000000     0.727010000000    -0.553165   
O506     O      0.994880000000     0.956160000000     0.729890000000    -0.54818    
O507     O      0.952540000000     0.501800000000     0.729860000000    -0.543467   
O508     O      0.542060000000     0.998490000000     0.727010000000    -0.538028   
O509     O      0.544240000000     0.502430000000     0.779800000000    -0.552896   
O510     O      0.954260000000     0.004310000000     0.782730000000    -0.542999   
O511     O      0.498770000000     0.957730000000     0.782670000000    -0.538578   
O512     O      0.001140000000     0.547660000000     0.779860000000    -0.548255   
O513     O      0.522290000000     0.797850000000     0.758000000000    -0.548779   
O514     O      0.525970000000     0.707950000000     0.756480000000    -0.547105   
O515     O      0.526870000000     0.754210000000     0.711770000000    -0.545751   
O516     O      0.521570000000     0.752890000000     0.801520000000    -0.55617    
O517     O      0.968860000000     0.749580000000     0.798290000000    -0.547767   
O518     O      0.974220000000     0.750060000000     0.708470000000    -0.553572   
O519     O      0.973270000000     0.705780000000     0.752270000000    -0.546492   
O520     O      0.969630000000     0.795460000000     0.752930000000    -0.537781   
O521     O      0.793310000000     0.974320000000     0.752360000000    -0.5479     
O522     O      0.703520000000     0.973380000000     0.749720000000    -0.543371   
O523     O      0.749630000000     0.976480000000     0.706850000000    -0.543902   
O524     O      0.747930000000     0.971200000000     0.796550000000    -0.553999   
O525     O      0.743350000000     0.523800000000     0.799710000000    -0.552964   
O526     O      0.752200000000     0.529120000000     0.710180000000    -0.544213   
O527     O      0.703140000000     0.526260000000     0.751580000000    -0.548885   
O528     O      0.792740000000     0.526660000000     0.759730000000    -0.548583   
O529     O      0.778260000000     0.008540000000     0.546680000000    -0.526734   
O530     O      0.774570000000     0.494830000000     0.957680000000    -0.528741   
O531     O      0.775730000000     0.546200000000     0.495270000000    -0.54476    
O532     O      0.776850000000     0.957220000000     0.008840000000    -0.514871   
O533     O      0.724080000000     0.956650000000     0.504980000000    -0.542176   
O534     O      0.723600000000     0.546450000000     0.004130000000    -0.559563   
O535     O      0.722090000000     0.000970000000     0.959440000000    -0.551693   
O536     O      0.725770000000     0.502280000000     0.549320000000    -0.549061   
O537     O      0.998290000000     0.722830000000     0.550120000000    -0.552127   
O538     O      0.494920000000     0.722180000000     0.960290000000    -0.528546   
O539     O      0.542140000000     0.720400000000     0.504140000000    -0.544707   
O540     O      0.952220000000     0.724820000000     0.006310000000    -0.546696   
O541     O      0.955150000000     0.777410000000     0.511420000000    -0.533454   
O542     O      0.543990000000     0.772910000000     0.998080000000    -0.545285   
O543     O      0.993980000000     0.775060000000     0.960220000000    -0.541339   
O544     O      0.506540000000     0.775060000000     0.549430000000    -0.534109   
O545     O      0.704700000000     0.752070000000     0.973970000000    -0.539951   
O546     O      0.794590000000     0.753360000000     0.978240000000    -0.536254   
O547     O      0.751300000000     0.707750000000     0.974410000000    -0.530279   
O548     O      0.748510000000     0.797680000000     0.977930000000    -0.538155   
O549     O      0.746310000000     0.795540000000     0.530750000000    -0.548745   
O550     O      0.748270000000     0.705790000000     0.527260000000    -0.549059   
O551     O      0.792180000000     0.752700000000     0.531120000000    -0.54685    
O552     O      0.702290000000     0.748730000000     0.526750000000    -0.547271   
O553     O      0.932200000000     0.773790000000     0.573010000000    -0.331756   
O554     O      0.891120000000     0.806560000000     0.574310000000    -0.233582   
O555     O      0.676050000000     0.810900000000     0.467740000000    -0.329009   
O556     O      0.643500000000     0.795000000000     0.429500000000    -0.242548   
O557     O      0.791120000000     0.932760000000     0.063990000000    -0.319552   
O558     O      0.765480000000     0.895020000000     0.590100000000    -0.238204   
O559     O      0.807230000000     0.646140000000     0.933930000000    -0.337843   
O560     O      0.811290000000     0.681820000000     0.972460000000    -0.236027   
O561     O      0.812630000000     0.939800000000     0.894050000000    -0.335205   
O562     O      0.778510000000     0.936360000000     0.933980000000    -0.233856   
O563     O      0.781690000000     0.567330000000     0.567740000000    -0.324791   
O564     O      0.765920000000     0.590130000000     0.612310000000    -0.238862   
O565     O      0.948480000000     0.692590000000     0.932730000000    -0.322043   
O566     O      0.915260000000     0.719380000000     0.901890000000    -0.242796   
O567     O      0.568210000000     0.770910000000     0.571580000000    -0.330733   
O568     O      0.065260000000     0.807450000000     0.609400000000    -0.232836   
O569     O      0.679010000000     0.971720000000     0.687390000000    -0.326645   
O570     O      0.642420000000     0.935110000000     0.696900000000    -0.235361   
O571     O      0.920650000000     0.958840000000     0.695370000000    -0.318429   
O572     O      0.904630000000     0.925440000000     0.732990000000    -0.228823   
O573     O      0.972990000000     0.820370000000     0.691430000000    -0.32954    
O574     O      0.935140000000     0.856530000000     0.697080000000    -0.227334   
O575     O      0.941550000000     0.674380000000     0.707110000000    -0.32283    
O576     O      0.979460000000     0.656930000000     0.674790000000    -0.242646   
V1       V      0.497040000000     0.000640000000     0.226350000000     1.41251    
V2       V      0.499540000000     0.503000000000     0.283420000000     1.38864    
V3       V      0.026300000000     0.253200000000     0.256980000000     1.41156    
V4       V      0.469370000000     0.250290000000     0.253030000000     1.42277    
V5       V      0.248550000000     0.471720000000     0.251370000000     1.42206    
V6       V      0.247870000000     0.028610000000     0.255310000000     1.38845    
V7       V      0.278560000000     0.001730000000     0.002040000000     1.37053    
V8       V      0.221670000000     0.001570000000     0.504520000000     1.40087    
V9       V      0.996870000000     0.220370000000     0.005240000000     1.39776    
V10      V      0.999910000000     0.277280000000     0.504830000000     1.39456    
V11      V      0.249810000000     0.252800000000     0.474030000000     1.40734    
V12      V      0.247130000000     0.250590000000     0.031060000000     1.39935    
V13      V      0.497040000000     0.000640000000     0.726350000000     1.41262    
V14      V      0.499540000000     0.503000000000     0.783420000000     1.38915    
V15      V      0.026300000000     0.253200000000     0.756980000000     1.41131    
V16      V      0.469370000000     0.250290000000     0.753030000000     1.42251    
V17      V      0.248550000000     0.471720000000     0.751370000000     1.42202    
V18      V      0.247870000000     0.028610000000     0.755300000000     1.38845    
V19      V      0.278560000000     0.001730000000     0.502040000000     1.38836    
V20      V      0.221670000000     0.001570000000     0.004520000000     1.39436    
V21      V      0.996870000000     0.220370000000     0.505240000000     1.40465    
V22      V      0.999910000000     0.277280000000     0.004830000000     1.37695    
V23      V      0.249810000000     0.252800000000     0.974030000000     1.4139     
V24      V      0.247130000000     0.250590000000     0.531060000000     1.40967    
V25      V      0.497040000000     0.500640000000     0.226350000000     1.43358    
V26      V      0.499540000000     0.003010000000     0.283420000000     1.3801     
V27      V      0.026300000000     0.753200000000     0.256980000000     1.41128    
V28      V      0.469370000000     0.750290000000     0.253030000000     1.42278    
V29      V      0.248550000000     0.971720000000     0.251370000000     1.43066    
V30      V      0.247870000000     0.528610000000     0.255310000000     1.39698    
V31      V      0.278560000000     0.501730000000     0.002040000000     1.38886    
V32      V      0.221670000000     0.501570000000     0.504520000000     1.40777    
V33      V      0.996870000000     0.720370000000     0.005240000000     1.3979     
V34      V      0.999910000000     0.777280000000     0.504830000000     1.39503    
V35      V      0.249810000000     0.752800000000     0.474030000000     1.40733    
V36      V      0.247130000000     0.750590000000     0.031060000000     1.39935    
V37      V      0.497040000000     0.500640000000     0.726350000000     1.43366    
V38      V      0.499540000000     0.003010000000     0.783420000000     1.38064    
V39      V      0.026300000000     0.753200000000     0.756980000000     1.41102    
V40      V      0.469370000000     0.750290000000     0.753030000000     1.42252    
V41      V      0.248550000000     0.971720000000     0.751370000000     1.43059    
V42      V      0.247870000000     0.528610000000     0.755300000000     1.39697    
V43      V      0.278560000000     0.501730000000     0.502040000000     1.40676    
V44      V      0.221670000000     0.501570000000     0.004520000000     1.40125    
V45      V      0.996870000000     0.720370000000     0.505240000000     1.4048     
V46      V      0.999910000000     0.777280000000     0.004830000000     1.37747    
V47      V      0.249810000000     0.752800000000     0.974030000000     1.41388    
V48      V      0.247130000000     0.750590000000     0.531060000000     1.40965    
V49      V      0.997040000000     0.000640000000     0.226350000000     1.40799    
V50      V      0.999540000000     0.503000000000     0.283420000000     1.37591    
V51      V      0.526300000000     0.253200000000     0.256980000000     1.40532    
V52      V      0.969370000000     0.250290000000     0.253030000000     1.41697    
V53      V      0.748550000000     0.471720000000     0.251370000000     1.42207    
V54      V      0.747870000000     0.028610000000     0.255310000000     1.3884     
V55      V      0.778560000000     0.001730000000     0.002040000000     1.3703     
V56      V      0.721670000000     0.001570000000     0.504520000000     1.40043    
V57      V      0.496880000000     0.220370000000     0.005240000000     1.40215    
V58      V      0.499920000000     0.277280000000     0.504830000000     1.40788    
V59      V      0.749810000000     0.252800000000     0.474030000000     1.40704    
V60      V      0.747130000000     0.250590000000     0.031060000000     1.3994     
V61      V      0.997040000000     0.000640000000     0.726350000000     1.4081     
V62      V      0.999540000000     0.503000000000     0.783420000000     1.37646    
V63      V      0.526300000000     0.253200000000     0.756980000000     1.40508    
V64      V      0.969370000000     0.250290000000     0.753030000000     1.41672    
V65      V      0.748550000000     0.471720000000     0.751370000000     1.42203    
V66      V      0.747870000000     0.028610000000     0.755300000000     1.3884     
V67      V      0.778560000000     0.001730000000     0.502040000000     1.38814    
V68      V      0.721670000000     0.001570000000     0.004520000000     1.39391    
V69      V      0.496880000000     0.220370000000     0.505240000000     1.40905    
V70      V      0.499920000000     0.277280000000     0.004830000000     1.3902     
V71      V      0.749810000000     0.252800000000     0.974030000000     1.41361    
V72      V      0.747130000000     0.250590000000     0.531060000000     1.40974    
V73      V      0.997040000000     0.500640000000     0.226350000000     1.42897    
V74      V      0.999540000000     0.003010000000     0.283420000000     1.3674     
V75      V      0.526300000000     0.753200000000     0.256980000000     1.40505    
V76      V      0.969370000000     0.750290000000     0.253030000000     1.41699    
V77      V      0.748550000000     0.971720000000     0.251370000000     1.43068    
V78      V      0.747870000000     0.528610000000     0.255310000000     1.39693    
V79      V      0.778560000000     0.501730000000     0.002040000000     1.38863    
V80      V      0.721670000000     0.501570000000     0.504520000000     1.40735    
V81      V      0.496880000000     0.720370000000     0.005240000000     1.4023     
V82      V      0.499920000000     0.777280000000     0.504830000000     1.40832    
V83      V      0.749810000000     0.752800000000     0.474030000000     1.40703    
V84      V      0.747130000000     0.750590000000     0.031060000000     1.3994     
V85      V      0.997040000000     0.500640000000     0.726350000000     1.42905    
V86      V      0.999540000000     0.003010000000     0.783420000000     1.36798    
V87      V      0.526300000000     0.753200000000     0.756980000000     1.40481    
V88      V      0.969370000000     0.750290000000     0.753030000000     1.41674    
V89      V      0.748550000000     0.971720000000     0.751370000000     1.43062    
V90      V      0.747870000000     0.528610000000     0.755300000000     1.39692    
V91      V      0.778560000000     0.501730000000     0.502040000000     1.40656    
V92      V      0.721670000000     0.501570000000     0.004520000000     1.40081    
V93      V      0.496880000000     0.720370000000     0.505240000000     1.40919    
V94      V      0.499920000000     0.777280000000     0.004830000000     1.39069    
V95      V      0.749810000000     0.752800000000     0.974030000000     1.41359    
V96      V      0.747130000000     0.750590000000     0.531060000000     1.40972    


