data_structure

_audit_creation_method RASPA-1.0
_audit_creation_date 2023-5-19
_audit_author_name 'Poobodin Mano'

_cell_length_a    42.253
_cell_length_b    42.2626
_cell_length_c    42.2498
_cell_angle_alpha 90
_cell_angle_beta  90
_cell_angle_gamma 90
_cell_volume      75446.4

_symmetry_cell_setting          triclinic
_symmetry_space_group_name_Hall 'P 1'
_symmetry_space_group_name_H-M  'P 1'
_symmetry_Int_Tables_number     1

_symmetry_equiv_pos_as_xyz 'x,y,z'

loop_
_atom_site_label
_atom_site_type_symbol
_atom_site_fract_x
_atom_site_fract_y
_atom_site_fract_z
_atom_site_charge
C1       C      0.501230000000     0.057860000000     0.253170000000     0.473653   
C2       C      0.501020000000     0.438220000000     0.253250000000     0.477156   
C3       C      0.441350000000     0.497850000000     0.253070000000     0.477827   
C4       C      0.060990000000     0.498190000000     0.253370000000     0.475546   
C5       C      0.000950000000     0.188260000000     0.253000000000     0.475903   
C6       C      0.000620000000     0.307860000000     0.253140000000     0.474343   
C7       C      0.499310000000     0.248120000000     0.193890000000     0.492711   
C8       C      0.502250000000     0.248060000000     0.313570000000     0.476394   
C9       C      0.310970000000     0.997510000000     0.253020000000     0.472194   
C10      C      0.191370000000     0.997960000000     0.253780000000     0.471956   
C11      C      0.250640000000     0.497840000000     0.192920000000     0.477014   
C12      C      0.251710000000     0.497790000000     0.312560000000     0.492799   
C13      C      0.251150000000     0.999070000000     0.062490000000     0.466512   
C14      C      0.251720000000     0.998950000000     0.442890000000     0.468912   
C15      C      0.252330000000     0.058300000000     0.502580000000     0.487994   
C16      C      0.250480000000     0.438670000000     0.502680000000     0.476185   
C17      C      0.997500000000     0.249550000000     0.063530000000     0.50897    
C18      C      0.003930000000     0.249350000000     0.444020000000     0.471891   
C19      C      0.060500000000     0.249240000000     0.507060000000     0.494979   
C20      C      0.440960000000     0.249610000000     0.501060000000     0.484003   
C21      C      0.190860000000     0.247420000000     0.004370000000     0.468504   
C22      C      0.310480000000     0.249280000000     0.000420000000     0.463955   
C23      C      0.252290000000     0.188760000000     0.503040000000     0.494165   
C24      C      0.248940000000     0.308340000000     0.501940000000     0.489931   
C25      C      0.391950000000     0.271500000000     0.517300000000     0.0403988  
C26      C      0.392650000000     0.227610000000     0.982790000000     0.0304217  
C27      C      0.358960000000     0.270360000000     0.518050000000     0.0443968  
C28      C      0.359520000000     0.228350000000     0.980950000000     0.140458   
C29      C      0.141740000000     0.265290000000     0.484220000000     0.0433556  
C30      C      0.142760000000     0.230890000000     0.028200000000     0.014536   
C31      C      0.108890000000     0.267160000000     0.486430000000     0.047887   
C32      C      0.109500000000     0.230680000000     0.029080000000     0.137861   
C33      C      0.271140000000     0.389620000000     0.984890000000     0.0426507  
C34      C      0.227470000000     0.390490000000     0.019710000000     0.00836413 
C35      C      0.269240000000     0.356690000000     0.983370000000     0.0489442  
C36      C      0.226900000000     0.357290000000     0.020220000000     0.131441   
C37      C      0.230960000000     0.107230000000     0.485430000000     0.0464433  
C38      C      0.274860000000     0.106670000000     0.019950000000     0.0207479  
C39      C      0.232020000000     0.140210000000     0.484660000000     0.0475862  
C40      C      0.274060000000     0.139780000000     0.021720000000     0.143395   
C41      C      0.234740000000     0.476500000000     0.361630000000     0.0440415  
C42      C      0.269450000000     0.020250000000     0.360720000000     0.0336559  
C43      C      0.233480000000     0.478240000000     0.394570000000     0.0422574  
C44      C      0.270180000000     0.020700000000     0.393900000000     0.148088   
C45      C      0.267350000000     0.476230000000     0.143860000000     0.0339007  
C46      C      0.233660000000     0.020750000000     0.144660000000     0.0235097  
C47      C      0.268780000000     0.477950000000     0.110900000000     0.0403057  
C48      C      0.233130000000     0.021290000000     0.111470000000     0.145761   
C49      C      0.481670000000     0.265810000000     0.362630000000     0.0336745  
C50      C      0.025620000000     0.231380000000     0.361820000000     0.00912242 
C51      C      0.483550000000     0.267430000000     0.395540000000     0.0394691  
C52      C      0.026210000000     0.230970000000     0.395080000000     0.132536   
C53      C      0.019860000000     0.265920000000     0.144860000000     0.038374   
C54      C      0.975810000000     0.231610000000     0.145670000000     0.0256735  
C55      C      0.017910000000     0.267630000000     0.111970000000     0.0396977  
C56      C      0.975130000000     0.231310000000     0.112430000000     0.143579   
C57      C      0.109930000000     0.981180000000     0.231820000000     0.0315228  
C58      C      0.109320000000     0.015470000000     0.275890000000     0.023196   
C59      C      0.142890000000     0.979890000000     0.233310000000     0.0372449  
C60      C      0.142520000000     0.016150000000     0.276150000000     0.145972   
C61      C      0.392430000000     0.514690000000     0.231330000000     0.0346238  
C62      C      0.393020000000     0.480210000000     0.275260000000     0.0128298  
C63      C      0.359450000000     0.515800000000     0.232680000000     0.0404974  
C64      C      0.359840000000     0.479340000000     0.275350000000     0.135821   
C65      C      0.018090000000     0.389270000000     0.274720000000     0.0311198  
C66      C      0.483110000000     0.389940000000     0.231180000000     0.0118827  
C67      C      0.019180000000     0.356300000000     0.273290000000     0.0366436  
C68      C      0.482190000000     0.356760000000     0.231080000000     0.134429   
C69      C      0.484410000000     0.106760000000     0.275010000000     0.0357474  
C70      C      0.018150000000     0.106250000000     0.230510000000     0.0110455  
C71      C      0.483110000000     0.139720000000     0.273620000000     0.0421264  
C72      C      0.018780000000     0.139440000000     0.230290000000     0.13594    
C73      C      0.501230000000     0.057860000000     0.753170000000     0.473626   
C74      C      0.501020000000     0.438220000000     0.753250000000     0.477132   
C75      C      0.441350000000     0.497850000000     0.753070000000     0.477798   
C76      C      0.060990000000     0.498190000000     0.753370000000     0.475519   
C77      C      0.000950000000     0.188260000000     0.753000000000     0.475913   
C78      C      0.000620000000     0.307860000000     0.753130000000     0.474367   
C79      C      0.499310000000     0.248120000000     0.693890000000     0.492811   
C80      C      0.502250000000     0.248060000000     0.813570000000     0.476485   
C81      C      0.310970000000     0.997510000000     0.753020000000     0.472206   
C82      C      0.191370000000     0.997960000000     0.753780000000     0.471978   
C83      C      0.250640000000     0.497840000000     0.692910000000     0.476938   
C84      C      0.251710000000     0.497790000000     0.812560000000     0.492822   
C85      C      0.251150000000     0.999070000000     0.562500000000     0.4685     
C86      C      0.251720000000     0.998950000000     0.942900000000     0.465197   
C87      C      0.252330000000     0.058300000000     0.002580000000     0.468287   
C88      C      0.250480000000     0.438670000000     0.002680000000     0.456558   
C89      C      0.997500000000     0.249550000000     0.563520000000     0.510617   
C90      C      0.003930000000     0.249350000000     0.944020000000     0.468955   
C91      C      0.060500000000     0.249240000000     0.007060000000     0.491838   
C92      C      0.440960000000     0.249610000000     0.001060000000     0.465414   
C93      C      0.190860000000     0.247420000000     0.504370000000     0.485072   
C94      C      0.310480000000     0.249280000000     0.500420000000     0.491488   
C95      C      0.252290000000     0.188760000000     0.003040000000     0.477555   
C96      C      0.248940000000     0.308340000000     0.001940000000     0.47354    
C97      C      0.391950000000     0.271500000000     0.017300000000     0.0424342  
C98      C      0.392650000000     0.227610000000     0.482790000000     0.0168139  
C99      C      0.358960000000     0.270360000000     0.018050000000     0.0293445  
C100     C      0.359520000000     0.228350000000     0.480950000000     0.141668   
C101     C      0.141740000000     0.265290000000     0.984220000000     0.0530621  
C102     C      0.142760000000     0.230890000000     0.528200000000     0.0169834  
C103     C      0.108890000000     0.267160000000     0.986430000000     0.0590084  
C104     C      0.109500000000     0.230680000000     0.529080000000     0.139649   
C105     C      0.271140000000     0.389620000000     0.484890000000     0.0328936  
C106     C      0.227470000000     0.390490000000     0.519710000000     0.0108279  
C107     C      0.269240000000     0.356690000000     0.483370000000     0.0388466  
C108     C      0.226900000000     0.357290000000     0.520220000000     0.133809   
C109     C      0.230960000000     0.107230000000     0.985430000000     0.0559679  
C110     C      0.274860000000     0.106670000000     0.519950000000     0.0233107  
C111     C      0.232020000000     0.140210000000     0.984660000000     0.0575401  
C112     C      0.274060000000     0.139780000000     0.521720000000     0.145971   
C113     C      0.234740000000     0.476500000000     0.861630000000     0.0444547  
C114     C      0.269450000000     0.020250000000     0.860720000000     0.0337516  
C115     C      0.233480000000     0.478240000000     0.894570000000     0.0424338  
C116     C      0.270180000000     0.020700000000     0.893900000000     0.148479   
C117     C      0.267350000000     0.476230000000     0.643860000000     0.0339758  
C118     C      0.233660000000     0.020750000000     0.644660000000     0.023474   
C119     C      0.268780000000     0.477950000000     0.610900000000     0.0405864  
C120     C      0.233130000000     0.021290000000     0.611470000000     0.146118   
C121     C      0.481670000000     0.265810000000     0.862630000000     0.034084   
C122     C      0.025620000000     0.231380000000     0.861820000000     0.00927716 
C123     C      0.483550000000     0.267430000000     0.895540000000     0.0397966  
C124     C      0.026210000000     0.230970000000     0.895080000000     0.133107   
C125     C      0.019860000000     0.265920000000     0.644860000000     0.0384027  
C126     C      0.975810000000     0.231610000000     0.645670000000     0.02562    
C127     C      0.017910000000     0.267630000000     0.611970000000     0.039836   
C128     C      0.975130000000     0.231310000000     0.612430000000     0.143904   
C129     C      0.109930000000     0.981180000000     0.731820000000     0.0315907  
C130     C      0.109320000000     0.015470000000     0.775900000000     0.0231698  
C131     C      0.142890000000     0.979890000000     0.733310000000     0.0373369  
C132     C      0.142520000000     0.016150000000     0.776150000000     0.146157   
C133     C      0.392430000000     0.514690000000     0.731330000000     0.0346938  
C134     C      0.393020000000     0.480210000000     0.775260000000     0.0128889  
C135     C      0.359450000000     0.515800000000     0.732680000000     0.0405727  
C136     C      0.359840000000     0.479340000000     0.775350000000     0.135968   
C137     C      0.018090000000     0.389270000000     0.774720000000     0.0312367  
C138     C      0.483110000000     0.389940000000     0.731180000000     0.0119547  
C139     C      0.019180000000     0.356300000000     0.773290000000     0.0367975  
C140     C      0.482190000000     0.356760000000     0.731080000000     0.134495   
C141     C      0.484410000000     0.106760000000     0.775010000000     0.0358528  
C142     C      0.018150000000     0.106250000000     0.730510000000     0.0110874  
C143     C      0.483110000000     0.139720000000     0.773620000000     0.042216   
C144     C      0.018780000000     0.139440000000     0.730290000000     0.136011   
C145     C      0.501230000000     0.557860000000     0.253170000000     0.477847   
C146     C      0.501020000000     0.938220000000     0.253250000000     0.474694   
C147     C      0.441350000000     0.997850000000     0.253070000000     0.455613   
C148     C      0.060990000000     0.998190000000     0.253370000000     0.453312   
C149     C      0.000950000000     0.688260000000     0.253000000000     0.475852   
C150     C      0.000620000000     0.807860000000     0.253140000000     0.474287   
C151     C      0.499310000000     0.748120000000     0.193890000000     0.492725   
C152     C      0.502250000000     0.748060000000     0.313570000000     0.476367   
C153     C      0.310970000000     0.497510000000     0.253020000000     0.490772   
C154     C      0.191370000000     0.497960000000     0.253780000000     0.491025   
C155     C      0.250640000000     0.997840000000     0.192920000000     0.458366   
C156     C      0.251710000000     0.997800000000     0.312560000000     0.473978   
C157     C      0.251150000000     0.499070000000     0.062490000000     0.489044   
C158     C      0.251720000000     0.498950000000     0.442890000000     0.491502   
C159     C      0.252330000000     0.558300000000     0.502580000000     0.492569   
C160     C      0.250480000000     0.938670000000     0.502680000000     0.473705   
C161     C      0.997500000000     0.749550000000     0.063530000000     0.509043   
C162     C      0.003930000000     0.749350000000     0.444020000000     0.47191    
C163     C      0.060500000000     0.749240000000     0.507060000000     0.495035   
C164     C      0.440960000000     0.749610000000     0.501060000000     0.484055   
C165     C      0.190860000000     0.747420000000     0.004370000000     0.468483   
C166     C      0.310480000000     0.749280000000     0.000420000000     0.46394    
C167     C      0.252290000000     0.688760000000     0.503040000000     0.494131   
C168     C      0.248940000000     0.808340000000     0.501940000000     0.489924   
C169     C      0.391950000000     0.771500000000     0.517300000000     0.0403275  
C170     C      0.392650000000     0.727610000000     0.982790000000     0.0303897  
C171     C      0.358960000000     0.770360000000     0.518050000000     0.0443202  
C172     C      0.359520000000     0.728350000000     0.980950000000     0.140344   
C173     C      0.141740000000     0.765290000000     0.484220000000     0.0432915  
C174     C      0.142760000000     0.730890000000     0.028200000000     0.0144928  
C175     C      0.108890000000     0.767160000000     0.486430000000     0.047772   
C176     C      0.109500000000     0.730680000000     0.029080000000     0.137669   
C177     C      0.271140000000     0.889620000000     0.984890000000     0.0423161  
C178     C      0.227470000000     0.890490000000     0.019710000000     0.0080803  
C179     C      0.269240000000     0.856690000000     0.983370000000     0.048838   
C180     C      0.226900000000     0.857290000000     0.020220000000     0.131272   
C181     C      0.230960000000     0.607230000000     0.485430000000     0.0465247  
C182     C      0.274860000000     0.606670000000     0.019950000000     0.0208746  
C183     C      0.232020000000     0.640210000000     0.484660000000     0.0471799  
C184     C      0.274060000000     0.639780000000     0.021720000000     0.142949   
C185     C      0.234740000000     0.976500000000     0.361630000000     0.0411386  
C186     C      0.269450000000     0.520250000000     0.360720000000     0.0221062  
C187     C      0.233480000000     0.978240000000     0.394570000000     0.0391228  
C188     C      0.270180000000     0.520700000000     0.393900000000     0.138291   
C189     C      0.267350000000     0.976230000000     0.143860000000     0.0312377  
C190     C      0.233660000000     0.520750000000     0.144660000000     0.0119719  
C191     C      0.268780000000     0.977950000000     0.110900000000     0.0372742  
C192     C      0.233130000000     0.521290000000     0.111470000000     0.135999   
C193     C      0.481670000000     0.765810000000     0.362630000000     0.0335681  
C194     C      0.025620000000     0.731380000000     0.361820000000     0.00905495 
C195     C      0.483550000000     0.767430000000     0.395540000000     0.0393403  
C196     C      0.026210000000     0.730970000000     0.395080000000     0.132317   
C197     C      0.019860000000     0.765920000000     0.144860000000     0.0383093  
C198     C      0.975810000000     0.731610000000     0.145670000000     0.0256635  
C199     C      0.017910000000     0.767630000000     0.111970000000     0.0395931  
C200     C      0.975130000000     0.731310000000     0.112430000000     0.14339    
C201     C      0.109930000000     0.481180000000     0.231820000000     0.0345878  
C202     C      0.109320000000     0.515470000000     0.275890000000     0.0121375  
C203     C      0.142890000000     0.479890000000     0.233310000000     0.0401079  
C204     C      0.142520000000     0.516150000000     0.276150000000     0.13569    
C205     C      0.392430000000     0.014690000000     0.231330000000     0.0456871  
C206     C      0.393020000000     0.980210000000     0.275260000000     0.0100075  
C207     C      0.359450000000     0.015800000000     0.232680000000     0.0519259  
C208     C      0.359840000000     0.979340000000     0.275350000000     0.13309    
C209     C      0.018090000000     0.889270000000     0.274720000000     0.0307973  
C210     C      0.483110000000     0.889940000000     0.231180000000     0.0116476  
C211     C      0.019180000000     0.856300000000     0.273290000000     0.0365249  
C212     C      0.482190000000     0.856750000000     0.231080000000     0.134302   
C213     C      0.484410000000     0.606760000000     0.275010000000     0.0355511  
C214     C      0.018150000000     0.606250000000     0.230510000000     0.0109247  
C215     C      0.483110000000     0.639720000000     0.273620000000     0.0416093  
C216     C      0.018780000000     0.639440000000     0.230290000000     0.135386   
C217     C      0.501230000000     0.557860000000     0.753170000000     0.477816   
C218     C      0.501020000000     0.938220000000     0.753250000000     0.474673   
C219     C      0.441350000000     0.997850000000     0.753070000000     0.455599   
C220     C      0.060990000000     0.998190000000     0.753370000000     0.453311   
C221     C      0.000950000000     0.688260000000     0.753000000000     0.475862   
C222     C      0.000620000000     0.807860000000     0.753130000000     0.474311   
C223     C      0.499310000000     0.748120000000     0.693890000000     0.492824   
C224     C      0.502250000000     0.748060000000     0.813570000000     0.476458   
C225     C      0.310970000000     0.497510000000     0.753020000000     0.490771   
C226     C      0.191370000000     0.497960000000     0.753780000000     0.491031   
C227     C      0.250640000000     0.997840000000     0.692910000000     0.458301   
C228     C      0.251710000000     0.997800000000     0.812560000000     0.474027   
C229     C      0.251150000000     0.499070000000     0.562500000000     0.491069   
C230     C      0.251720000000     0.498950000000     0.942900000000     0.487701   
C231     C      0.252330000000     0.558300000000     0.002580000000     0.472773   
C232     C      0.250480000000     0.938670000000     0.002680000000     0.454117   
C233     C      0.997500000000     0.749550000000     0.563520000000     0.510691   
C234     C      0.003930000000     0.749350000000     0.944020000000     0.468971   
C235     C      0.060500000000     0.749240000000     0.007060000000     0.491892   
C236     C      0.440960000000     0.749610000000     0.001060000000     0.465442   
C237     C      0.190860000000     0.747420000000     0.504370000000     0.485064   
C238     C      0.310480000000     0.749280000000     0.500420000000     0.4915     
C239     C      0.252290000000     0.688760000000     0.003040000000     0.477496   
C240     C      0.248940000000     0.808340000000     0.001940000000     0.473529   
C241     C      0.391950000000     0.771500000000     0.017300000000     0.0423676  
C242     C      0.392650000000     0.727610000000     0.482790000000     0.0167644  
C243     C      0.358960000000     0.770360000000     0.018050000000     0.0292532  
C244     C      0.359520000000     0.728350000000     0.480950000000     0.141553   
C245     C      0.141740000000     0.765290000000     0.984220000000     0.0530102  
C246     C      0.142760000000     0.730890000000     0.528200000000     0.0169423  
C247     C      0.108890000000     0.767160000000     0.986430000000     0.0589095  
C248     C      0.109500000000     0.730680000000     0.529080000000     0.139458   
C249     C      0.271140000000     0.889620000000     0.484890000000     0.0325644  
C250     C      0.227470000000     0.890490000000     0.519710000000     0.01054    
C251     C      0.269240000000     0.856690000000     0.483370000000     0.038737   
C252     C      0.226900000000     0.857290000000     0.520220000000     0.133638   
C253     C      0.230960000000     0.607230000000     0.985430000000     0.056086   
C254     C      0.274860000000     0.606670000000     0.519950000000     0.0234443  
C255     C      0.232020000000     0.640210000000     0.984660000000     0.0571573  
C256     C      0.274060000000     0.639780000000     0.521720000000     0.145529   
C257     C      0.234740000000     0.976500000000     0.861630000000     0.0415568  
C258     C      0.269450000000     0.520250000000     0.860720000000     0.0222283  
C259     C      0.233480000000     0.978240000000     0.894570000000     0.0393073  
C260     C      0.270180000000     0.520700000000     0.893900000000     0.138717   
C261     C      0.267350000000     0.976230000000     0.643860000000     0.0313107  
C262     C      0.233660000000     0.520750000000     0.644660000000     0.011938   
C263     C      0.268780000000     0.977950000000     0.610900000000     0.0375501  
C264     C      0.233130000000     0.521290000000     0.611470000000     0.136349   
C265     C      0.481670000000     0.765810000000     0.862630000000     0.0339781  
C266     C      0.025620000000     0.731380000000     0.861820000000     0.00920995 
C267     C      0.483550000000     0.767430000000     0.895540000000     0.0396684  
C268     C      0.026210000000     0.730970000000     0.895080000000     0.132889   
C269     C      0.019860000000     0.765920000000     0.644860000000     0.0383378  
C270     C      0.975810000000     0.731610000000     0.645670000000     0.0256098  
C271     C      0.017910000000     0.767630000000     0.611970000000     0.0397311  
C272     C      0.975130000000     0.731310000000     0.612430000000     0.143715   
C273     C      0.109930000000     0.481180000000     0.731820000000     0.034655   
C274     C      0.109320000000     0.515470000000     0.775900000000     0.0121286  
C275     C      0.142890000000     0.479890000000     0.733310000000     0.0401986  
C276     C      0.142520000000     0.516150000000     0.776150000000     0.135888   
C277     C      0.392430000000     0.014690000000     0.731330000000     0.0457441  
C278     C      0.393020000000     0.980210000000     0.775260000000     0.0100683  
C279     C      0.359450000000     0.015800000000     0.732680000000     0.0519882  
C280     C      0.359840000000     0.979340000000     0.775350000000     0.133239   
C281     C      0.018090000000     0.889270000000     0.774720000000     0.0309147  
C282     C      0.483110000000     0.889940000000     0.731180000000     0.0117197  
C283     C      0.019180000000     0.856300000000     0.773290000000     0.0366787  
C284     C      0.482190000000     0.856750000000     0.731080000000     0.134367   
C285     C      0.484410000000     0.606760000000     0.775010000000     0.0356571  
C286     C      0.018150000000     0.606250000000     0.730510000000     0.0109668  
C287     C      0.483110000000     0.639720000000     0.773620000000     0.0417     
C288     C      0.018780000000     0.639440000000     0.730290000000     0.135457   
C289     C      0.001230000000     0.057860000000     0.253170000000     0.455397   
C290     C      0.001030000000     0.438220000000     0.253250000000     0.458752   
C291     C      0.941350000000     0.497850000000     0.253070000000     0.474372   
C292     C      0.560990000000     0.498190000000     0.253370000000     0.477583   
C293     C      0.500950000000     0.188260000000     0.253000000000     0.491212   
C294     C      0.500620000000     0.307860000000     0.253140000000     0.490081   
C295     C      0.999310000000     0.248120000000     0.193890000000     0.50794    
C296     C      0.002250000000     0.248060000000     0.313570000000     0.460949   
C297     C      0.810970000000     0.997510000000     0.253020000000     0.472284   
C298     C      0.691370000000     0.997960000000     0.253780000000     0.471962   
C299     C      0.750640000000     0.497840000000     0.192920000000     0.477045   
C300     C      0.751710000000     0.497790000000     0.312560000000     0.492782   
C301     C      0.751150000000     0.999070000000     0.062490000000     0.466503   
C302     C      0.751720000000     0.998950000000     0.442890000000     0.468909   
C303     C      0.752330000000     0.058300000000     0.502580000000     0.487942   
C304     C      0.750480000000     0.438670000000     0.502680000000     0.476162   
C305     C      0.497500000000     0.249550000000     0.063530000000     0.496317   
C306     C      0.503930000000     0.249350000000     0.444020000000     0.489977   
C307     C      0.560500000000     0.249240000000     0.507060000000     0.496949   
C308     C      0.940960000000     0.249610000000     0.501060000000     0.480372   
C309     C      0.690860000000     0.247420000000     0.004370000000     0.468489   
C310     C      0.810480000000     0.249280000000     0.000420000000     0.464032   
C311     C      0.752290000000     0.188760000000     0.503040000000     0.494143   
C312     C      0.748940000000     0.308340000000     0.501940000000     0.489889   
C313     C      0.891950000000     0.271500000000     0.517300000000     0.040405   
C314     C      0.892650000000     0.227610000000     0.982790000000     0.0304164  
C315     C      0.858960000000     0.270360000000     0.518050000000     0.044757   
C316     C      0.859520000000     0.228350000000     0.980950000000     0.140875   
C317     C      0.641740000000     0.265290000000     0.484220000000     0.0434035  
C318     C      0.642760000000     0.230890000000     0.028200000000     0.01447    
C319     C      0.608890000000     0.267160000000     0.486430000000     0.0481289  
C320     C      0.609500000000     0.230680000000     0.029080000000     0.138276   
C321     C      0.771140000000     0.389620000000     0.984890000000     0.0427589  
C322     C      0.727470000000     0.390490000000     0.019710000000     0.0084142  
C323     C      0.769240000000     0.356690000000     0.983370000000     0.0490417  
C324     C      0.726900000000     0.357290000000     0.020220000000     0.131568   
C325     C      0.730960000000     0.107230000000     0.485430000000     0.0465275  
C326     C      0.774860000000     0.106670000000     0.019950000000     0.0207881  
C327     C      0.732010000000     0.140210000000     0.484660000000     0.0475473  
C328     C      0.774060000000     0.139780000000     0.021720000000     0.143485   
C329     C      0.734740000000     0.476500000000     0.361630000000     0.0440984  
C330     C      0.769450000000     0.020250000000     0.360720000000     0.0336543  
C331     C      0.733480000000     0.478240000000     0.394570000000     0.0423551  
C332     C      0.770180000000     0.020700000000     0.393900000000     0.148254   
C333     C      0.767350000000     0.476230000000     0.143860000000     0.0340097  
C334     C      0.733660000000     0.020750000000     0.144660000000     0.0235505  
C335     C      0.768780000000     0.477950000000     0.110900000000     0.0404451  
C336     C      0.733130000000     0.021290000000     0.111470000000     0.145883   
C337     C      0.981670000000     0.265810000000     0.362630000000     0.0430246  
C338     C      0.525620000000     0.231380000000     0.361820000000     0.0113231  
C339     C      0.983550000000     0.267430000000     0.395540000000     0.0486253  
C340     C      0.526210000000     0.230970000000     0.395080000000     0.134722   
C341     C      0.519860000000     0.265920000000     0.144860000000     0.047384   
C342     C      0.475810000000     0.231610000000     0.145670000000     0.0230773  
C343     C      0.517910000000     0.267630000000     0.111970000000     0.0487974  
C344     C      0.475130000000     0.231310000000     0.112430000000     0.141258   
C345     C      0.609930000000     0.981180000000     0.231820000000     0.0317847  
C346     C      0.609320000000     0.015470000000     0.275890000000     0.023422   
C347     C      0.642880000000     0.979890000000     0.233310000000     0.0373026  
C348     C      0.642520000000     0.016150000000     0.276150000000     0.14609    
C349     C      0.892430000000     0.514690000000     0.231330000000     0.0347953  
C350     C      0.893020000000     0.480210000000     0.275260000000     0.0129263  
C351     C      0.859450000000     0.515800000000     0.232680000000     0.0409376  
C352     C      0.859840000000     0.479340000000     0.275350000000     0.136296   
C353     C      0.518090000000     0.389270000000     0.274720000000     0.0336429  
C354     C      0.983110000000     0.389940000000     0.231180000000     0.0210555  
C355     C      0.519180000000     0.356300000000     0.273290000000     0.0389853  
C356     C      0.982190000000     0.356760000000     0.231080000000     0.142815   
C357     C      0.984410000000     0.106760000000     0.275010000000     0.0448553  
C358     C      0.518150000000     0.106250000000     0.230510000000     0.0133295  
C359     C      0.983110000000     0.139720000000     0.273620000000     0.0515498  
C360     C      0.518780000000     0.139440000000     0.230290000000     0.138267   
C361     C      0.001230000000     0.057860000000     0.753170000000     0.455383   
C362     C      0.001030000000     0.438220000000     0.753250000000     0.458731   
C363     C      0.941350000000     0.497850000000     0.753070000000     0.474345   
C364     C      0.560990000000     0.498190000000     0.753370000000     0.477556   
C365     C      0.500950000000     0.188260000000     0.753000000000     0.491217   
C366     C      0.500620000000     0.307860000000     0.753130000000     0.490103   
C367     C      0.999310000000     0.248120000000     0.693890000000     0.508035   
C368     C      0.002250000000     0.248060000000     0.813570000000     0.461053   
C369     C      0.810970000000     0.997510000000     0.753020000000     0.472296   
C370     C      0.691370000000     0.997960000000     0.753780000000     0.471984   
C371     C      0.750640000000     0.497840000000     0.692910000000     0.476969   
C372     C      0.751710000000     0.497790000000     0.812560000000     0.492805   
C373     C      0.751150000000     0.999070000000     0.562500000000     0.46849    
C374     C      0.751720000000     0.998950000000     0.942900000000     0.465196   
C375     C      0.752330000000     0.058300000000     0.002580000000     0.468239   
C376     C      0.750480000000     0.438670000000     0.002680000000     0.456549   
C377     C      0.497500000000     0.249550000000     0.563520000000     0.497943   
C378     C      0.503930000000     0.249350000000     0.944020000000     0.486971   
C379     C      0.560500000000     0.249240000000     0.007060000000     0.493792   
C380     C      0.940960000000     0.249610000000     0.001060000000     0.461855   
C381     C      0.690860000000     0.247420000000     0.504370000000     0.485062   
C382     C      0.810480000000     0.249280000000     0.500420000000     0.491533   
C383     C      0.752290000000     0.188760000000     0.003040000000     0.477535   
C384     C      0.748940000000     0.308340000000     0.001940000000     0.473503   
C385     C      0.891950000000     0.271500000000     0.017300000000     0.0424372  
C386     C      0.892650000000     0.227610000000     0.482790000000     0.0168432  
C387     C      0.858960000000     0.270360000000     0.018050000000     0.0297283  
C388     C      0.859520000000     0.228350000000     0.480950000000     0.142084   
C389     C      0.641740000000     0.265290000000     0.984220000000     0.0531122  
C390     C      0.642760000000     0.230890000000     0.528200000000     0.0169202  
C391     C      0.608890000000     0.267160000000     0.986430000000     0.0592654  
C392     C      0.609500000000     0.230680000000     0.529080000000     0.140067   
C393     C      0.771140000000     0.389620000000     0.484890000000     0.0330092  
C394     C      0.727470000000     0.390490000000     0.519710000000     0.0108782  
C395     C      0.769240000000     0.356690000000     0.483370000000     0.0389513  
C396     C      0.726900000000     0.357290000000     0.520220000000     0.133937   
C397     C      0.730960000000     0.107230000000     0.985430000000     0.0560474  
C398     C      0.774860000000     0.106670000000     0.519950000000     0.0233501  
C399     C      0.732010000000     0.140210000000     0.984660000000     0.057492   
C400     C      0.774060000000     0.139780000000     0.521720000000     0.14606    
C401     C      0.734740000000     0.476500000000     0.861630000000     0.0445113  
C402     C      0.769450000000     0.020250000000     0.860720000000     0.0337501  
C403     C      0.733480000000     0.478240000000     0.894570000000     0.0425312  
C404     C      0.770180000000     0.020700000000     0.893900000000     0.148644   
C405     C      0.767350000000     0.476230000000     0.643860000000     0.0340848  
C406     C      0.733660000000     0.020750000000     0.644660000000     0.0235149  
C407     C      0.768780000000     0.477950000000     0.610900000000     0.0407257  
C408     C      0.733130000000     0.021290000000     0.611470000000     0.146241   
C409     C      0.981670000000     0.265810000000     0.862630000000     0.0434161  
C410     C      0.525620000000     0.231380000000     0.861820000000     0.0114752  
C411     C      0.983550000000     0.267430000000     0.895540000000     0.0489235  
C412     C      0.526210000000     0.230970000000     0.895080000000     0.135289   
C413     C      0.519860000000     0.265920000000     0.644860000000     0.0474134  
C414     C      0.475810000000     0.231610000000     0.645670000000     0.023019   
C415     C      0.517910000000     0.267630000000     0.611970000000     0.0489542  
C416     C      0.475130000000     0.231310000000     0.612430000000     0.141583   
C417     C      0.609930000000     0.981180000000     0.731820000000     0.0318528  
C418     C      0.609320000000     0.015470000000     0.775900000000     0.0233956  
C419     C      0.642880000000     0.979890000000     0.733310000000     0.0373949  
C420     C      0.642520000000     0.016150000000     0.776150000000     0.146275   
C421     C      0.892430000000     0.514690000000     0.731330000000     0.0348651  
C422     C      0.893020000000     0.480210000000     0.775260000000     0.0129851  
C423     C      0.859450000000     0.515800000000     0.732680000000     0.0410125  
C424     C      0.859840000000     0.479340000000     0.775350000000     0.136442   
C425     C      0.518090000000     0.389270000000     0.774720000000     0.0337602  
C426     C      0.983110000000     0.389940000000     0.731180000000     0.0211206  
C427     C      0.519180000000     0.356300000000     0.773290000000     0.0391393  
C428     C      0.982190000000     0.356760000000     0.731080000000     0.142875   
C429     C      0.984410000000     0.106760000000     0.775010000000     0.0449531  
C430     C      0.518150000000     0.106250000000     0.730510000000     0.0133717  
C431     C      0.983110000000     0.139720000000     0.773620000000     0.0516316  
C432     C      0.518780000000     0.139440000000     0.730290000000     0.138339   
C433     C      0.001230000000     0.557860000000     0.253170000000     0.459505   
C434     C      0.001030000000     0.938220000000     0.253250000000     0.456324   
C435     C      0.941350000000     0.997850000000     0.253070000000     0.452252   
C436     C      0.560990000000     0.998190000000     0.253370000000     0.455309   
C437     C      0.500950000000     0.688260000000     0.253000000000     0.491186   
C438     C      0.500620000000     0.807860000000     0.253140000000     0.490031   
C439     C      0.999310000000     0.748120000000     0.193890000000     0.507981   
C440     C      0.002250000000     0.748060000000     0.313570000000     0.460907   
C441     C      0.810970000000     0.497510000000     0.253020000000     0.490834   
C442     C      0.691370000000     0.497960000000     0.253780000000     0.491027   
C443     C      0.750640000000     0.997840000000     0.192920000000     0.458413   
C444     C      0.751710000000     0.997800000000     0.312560000000     0.473977   
C445     C      0.751150000000     0.499070000000     0.062490000000     0.489018   
C446     C      0.751720000000     0.498950000000     0.442890000000     0.491471   
C447     C      0.752330000000     0.558300000000     0.502580000000     0.492512   
C448     C      0.750480000000     0.938670000000     0.502680000000     0.473685   
C449     C      0.497500000000     0.749550000000     0.063530000000     0.496375   
C450     C      0.503930000000     0.749350000000     0.444020000000     0.490014   
C451     C      0.560500000000     0.749240000000     0.507060000000     0.497007   
C452     C      0.940960000000     0.749610000000     0.501060000000     0.48042    
C453     C      0.690860000000     0.747420000000     0.004370000000     0.468467   
C454     C      0.810480000000     0.749280000000     0.000420000000     0.464017   
C455     C      0.752290000000     0.688760000000     0.503040000000     0.494108   
C456     C      0.748940000000     0.808340000000     0.501940000000     0.489882   
C457     C      0.891950000000     0.771500000000     0.517300000000     0.0403337  
C458     C      0.892650000000     0.727610000000     0.982790000000     0.0303845  
C459     C      0.858960000000     0.770360000000     0.518050000000     0.044681   
C460     C      0.859520000000     0.728350000000     0.980950000000     0.140763   
C461     C      0.641740000000     0.765290000000     0.484220000000     0.0433392  
C462     C      0.642760000000     0.730890000000     0.028200000000     0.0144266  
C463     C      0.608890000000     0.767160000000     0.486430000000     0.0480137  
C464     C      0.609500000000     0.730680000000     0.029080000000     0.138084   
C465     C      0.771140000000     0.889620000000     0.984890000000     0.0424246  
C466     C      0.727470000000     0.890490000000     0.019710000000     0.00813041 
C467     C      0.769240000000     0.856690000000     0.983370000000     0.0489355  
C468     C      0.726900000000     0.857290000000     0.020220000000     0.131399   
C469     C      0.730960000000     0.607230000000     0.485430000000     0.0466088  
C470     C      0.774860000000     0.606670000000     0.019950000000     0.0209148  
C471     C      0.732010000000     0.640210000000     0.484660000000     0.0471413  
C472     C      0.774060000000     0.639780000000     0.021720000000     0.14304    
C473     C      0.734740000000     0.976500000000     0.361630000000     0.0411966  
C474     C      0.769450000000     0.520250000000     0.360720000000     0.0221201  
C475     C      0.733480000000     0.978240000000     0.394570000000     0.039222   
C476     C      0.770180000000     0.520700000000     0.393900000000     0.138471   
C477     C      0.767350000000     0.976230000000     0.143860000000     0.0313489  
C478     C      0.733660000000     0.520750000000     0.144660000000     0.0120266  
C479     C      0.768780000000     0.977950000000     0.110900000000     0.0374159  
C480     C      0.733130000000     0.521290000000     0.111470000000     0.136133   
C481     C      0.981670000000     0.765810000000     0.362630000000     0.0429325  
C482     C      0.525620000000     0.731380000000     0.361820000000     0.0112575  
C483     C      0.983550000000     0.767430000000     0.395540000000     0.0485111  
C484     C      0.526210000000     0.730970000000     0.395080000000     0.134504   
C485     C      0.519860000000     0.765920000000     0.144860000000     0.0473294  
C486     C      0.475810000000     0.731610000000     0.145670000000     0.0230618  
C487     C      0.517910000000     0.767630000000     0.111970000000     0.0487022  
C488     C      0.475130000000     0.731310000000     0.112430000000     0.141063   
C489     C      0.609930000000     0.481180000000     0.231820000000     0.0348518  
C490     C      0.609320000000     0.515470000000     0.275890000000     0.0123557  
C491     C      0.642880000000     0.479890000000     0.233310000000     0.0401688  
C492     C      0.642520000000     0.516150000000     0.276150000000     0.135811   
C493     C      0.892430000000     0.014690000000     0.231330000000     0.0458173  
C494     C      0.893020000000     0.980210000000     0.275260000000     0.0101111  
C495     C      0.859450000000     0.015800000000     0.232680000000     0.0523384  
C496     C      0.859840000000     0.979340000000     0.275350000000     0.133569   
C497     C      0.518090000000     0.889270000000     0.274720000000     0.033317   
C498     C      0.983110000000     0.889940000000     0.231180000000     0.0208176  
C499     C      0.519180000000     0.856300000000     0.273290000000     0.0388647  
C500     C      0.982190000000     0.856750000000     0.231080000000     0.142696   
C501     C      0.984410000000     0.606760000000     0.275010000000     0.0446968  
C502     C      0.518150000000     0.606250000000     0.230510000000     0.0132147  
C503     C      0.983110000000     0.639720000000     0.273620000000     0.051059   
C504     C      0.518780000000     0.639440000000     0.230290000000     0.137716   
C505     C      0.001230000000     0.557860000000     0.753170000000     0.459487   
C506     C      0.001030000000     0.938220000000     0.753250000000     0.456305   
C507     C      0.941350000000     0.997850000000     0.753070000000     0.45224    
C508     C      0.560990000000     0.998190000000     0.753370000000     0.455307   
C509     C      0.500950000000     0.688260000000     0.753000000000     0.491192   
C510     C      0.500620000000     0.807860000000     0.753130000000     0.490053   
C511     C      0.999310000000     0.748120000000     0.693890000000     0.508077   
C512     C      0.002250000000     0.748060000000     0.813570000000     0.461011   
C513     C      0.810970000000     0.497510000000     0.753020000000     0.490833   
C514     C      0.691370000000     0.497960000000     0.753780000000     0.491033   
C515     C      0.750640000000     0.997840000000     0.692910000000     0.458347   
C516     C      0.751710000000     0.997800000000     0.812560000000     0.474026   
C517     C      0.751150000000     0.499070000000     0.562500000000     0.491042   
C518     C      0.751720000000     0.498950000000     0.942900000000     0.487671   
C519     C      0.752330000000     0.558300000000     0.002580000000     0.47272    
C520     C      0.750480000000     0.938670000000     0.002680000000     0.45411    
C521     C      0.497500000000     0.749550000000     0.563520000000     0.498002   
C522     C      0.503930000000     0.749350000000     0.944020000000     0.487005   
C523     C      0.560500000000     0.749240000000     0.007060000000     0.493848   
C524     C      0.940960000000     0.749610000000     0.001060000000     0.461878   
C525     C      0.690860000000     0.747420000000     0.504370000000     0.485054   
C526     C      0.810480000000     0.749280000000     0.500420000000     0.491544   
C527     C      0.752290000000     0.688760000000     0.003040000000     0.477477   
C528     C      0.748940000000     0.808340000000     0.001940000000     0.473493   
C529     C      0.891950000000     0.771500000000     0.017300000000     0.0423706  
C530     C      0.892650000000     0.727610000000     0.482790000000     0.016794   
C531     C      0.858960000000     0.770360000000     0.018050000000     0.0296375  
C532     C      0.859520000000     0.728350000000     0.480950000000     0.14197    
C533     C      0.641740000000     0.765290000000     0.984220000000     0.0530602  
C534     C      0.642760000000     0.730890000000     0.528200000000     0.016879   
C535     C      0.608890000000     0.767160000000     0.986430000000     0.0591662  
C536     C      0.609500000000     0.730680000000     0.529080000000     0.139877   
C537     C      0.771140000000     0.889620000000     0.484890000000     0.0326804  
C538     C      0.727470000000     0.890490000000     0.519710000000     0.0105904  
C539     C      0.769240000000     0.856690000000     0.483370000000     0.0388417  
C540     C      0.726900000000     0.857290000000     0.520220000000     0.133766   
C541     C      0.730960000000     0.607230000000     0.985430000000     0.0561655  
C542     C      0.774860000000     0.606670000000     0.519950000000     0.0234837  
C543     C      0.732010000000     0.640210000000     0.984660000000     0.0571095  
C544     C      0.774060000000     0.639780000000     0.521720000000     0.14562    
C545     C      0.734740000000     0.976500000000     0.861630000000     0.0416146  
C546     C      0.769450000000     0.520250000000     0.860720000000     0.0222422  
C547     C      0.733480000000     0.978240000000     0.894570000000     0.0394062  
C548     C      0.770180000000     0.520700000000     0.893900000000     0.138897   
C549     C      0.767350000000     0.976230000000     0.643860000000     0.0314219  
C550     C      0.733660000000     0.520750000000     0.644660000000     0.0119929  
C551     C      0.768780000000     0.977950000000     0.610900000000     0.0376917  
C552     C      0.733130000000     0.521290000000     0.611470000000     0.136484   
C553     C      0.981670000000     0.765810000000     0.862630000000     0.0433245  
C554     C      0.525620000000     0.731380000000     0.861820000000     0.0114099  
C555     C      0.983550000000     0.767430000000     0.895540000000     0.0488098  
C556     C      0.526210000000     0.730970000000     0.895080000000     0.135073   
C557     C      0.519860000000     0.765920000000     0.644860000000     0.0473585  
C558     C      0.475810000000     0.731610000000     0.645670000000     0.0230033  
C559     C      0.517910000000     0.767630000000     0.611970000000     0.0488588  
C560     C      0.475130000000     0.731310000000     0.612430000000     0.141389   
C561     C      0.609930000000     0.481180000000     0.731820000000     0.0349191  
C562     C      0.609320000000     0.515470000000     0.775900000000     0.0123467  
C563     C      0.642880000000     0.479890000000     0.733310000000     0.0402598  
C564     C      0.642520000000     0.516150000000     0.776150000000     0.136009   
C565     C      0.892430000000     0.014690000000     0.731330000000     0.0458741  
C566     C      0.893020000000     0.980210000000     0.775260000000     0.0101715  
C567     C      0.859450000000     0.015800000000     0.732680000000     0.0524003  
C568     C      0.859840000000     0.979340000000     0.775350000000     0.133717   
C569     C      0.518090000000     0.889270000000     0.774720000000     0.0334349  
C570     C      0.983110000000     0.889940000000     0.731180000000     0.0208829  
C571     C      0.519180000000     0.856300000000     0.773290000000     0.0390187  
C572     C      0.982190000000     0.856750000000     0.731080000000     0.142756   
C573     C      0.984410000000     0.606760000000     0.775010000000     0.0447952  
C574     C      0.518150000000     0.606250000000     0.730510000000     0.0132571  
C575     C      0.983110000000     0.639720000000     0.773620000000     0.0511419  
C576     C      0.518780000000     0.639440000000     0.730290000000     0.137789   
H1       H      0.346530000000     0.287400000000     0.532720000000     0.0389716  
H2       H      0.403880000000     0.289040000000     0.531770000000     0.0444541  
H3       H      0.405360000000     0.210160000000     0.968870000000     0.0636645  
H4       H      0.096420000000     0.281820000000     0.469410000000     0.0428913  
H5       H      0.153540000000     0.279220000000     0.466170000000     0.0452225  
H6       H      0.155710000000     0.216990000000     0.045480000000     0.0664643  
H7       H      0.286220000000     0.344190000000     0.968700000000     0.0369943  
H8       H      0.288940000000     0.401520000000     0.970730000000     0.0405274  
H9       H      0.210200000000     0.403350000000     0.033710000000     0.0614278  
H10      H      0.214870000000     0.152560000000     0.470060000000     0.0435346  
H11      H      0.213390000000     0.095240000000     0.471050000000     0.0497463  
H12      H      0.292300000000     0.094040000000     0.033960000000     0.0692633  
H13      H      0.218910000000     0.461200000000     0.407110000000     0.0375944  
H14      H      0.220500000000     0.458750000000     0.349740000000     0.0435253  
H15      H      0.283320000000     0.037610000000     0.347840000000     0.067991   
H16      H      0.282980000000     0.460570000000     0.098420000000     0.0366176  
H17      H      0.281120000000     0.458130000000     0.155770000000     0.040481   
H18      H      0.220150000000     0.038440000000     0.157490000000     0.0646674  
H19      H      0.466410000000     0.281990000000     0.407960000000     0.0365897  
H20      H      0.463720000000     0.279790000000     0.350730000000     0.040382   
H21      H      0.042990000000     0.217500000000     0.348970000000     0.0631432  
H22      H      0.035060000000     0.282170000000     0.099550000000     0.0456907  
H23      H      0.037860000000     0.279840000000     0.156760000000     0.0471922  
H24      H      0.958410000000     0.217760000000     0.158520000000     0.0688655  
H25      H      0.155290000000     0.965490000000     0.216030000000     0.0366256  
H26      H      0.097940000000     0.967140000000     0.213980000000     0.0390046  
H27      H      0.096570000000     0.029180000000     0.293480000000     0.0629363  
H28      H      0.347050000000     0.530230000000     0.215420000000     0.0384388  
H29      H      0.404430000000     0.528870000000     0.213610000000     0.0412318  
H30      H      0.405760000000     0.466490000000     0.292840000000     0.0627819  
H31      H      0.033820000000     0.343860000000     0.290350000000     0.0350431  
H32      H      0.032480000000     0.401240000000     0.292300000000     0.0380792  
H33      H      0.469180000000     0.402720000000     0.213790000000     0.0619114  
H34      H      0.468930000000     0.152080000000     0.291110000000     0.0396542  
H35      H      0.470610000000     0.094740000000     0.293010000000     0.04385    
H36      H      0.031640000000     0.093560000000     0.212710000000     0.0664895  
H37      H      0.346530000000     0.287400000000     0.032720000000     0.0411684  
H38      H      0.403880000000     0.289040000000     0.031770000000     0.0428739  
H39      H      0.405360000000     0.210160000000     0.468870000000     0.0645366  
H40      H      0.096420000000     0.281820000000     0.969410000000     0.0438212  
H41      H      0.153540000000     0.279220000000     0.966170000000     0.0457046  
H42      H      0.155710000000     0.216990000000     0.545480000000     0.0666178  
H43      H      0.286220000000     0.344190000000     0.468700000000     0.0364368  
H44      H      0.288940000000     0.401520000000     0.470730000000     0.0401201  
H45      H      0.210200000000     0.403350000000     0.533710000000     0.061698   
H46      H      0.214870000000     0.152560000000     0.970060000000     0.0439392  
H47      H      0.213390000000     0.095240000000     0.971050000000     0.0499825  
H48      H      0.292300000000     0.094040000000     0.533960000000     0.0695351  
H49      H      0.218910000000     0.461200000000     0.907110000000     0.0391711  
H50      H      0.220500000000     0.458750000000     0.849740000000     0.0439036  
H51      H      0.283320000000     0.037610000000     0.847840000000     0.0681338  
H52      H      0.282980000000     0.460570000000     0.598420000000     0.0372408  
H53      H      0.281120000000     0.458130000000     0.655770000000     0.0406587  
H54      H      0.220150000000     0.038440000000     0.657490000000     0.0647289  
H55      H      0.466410000000     0.281990000000     0.907960000000     0.0381027  
H56      H      0.463720000000     0.279790000000     0.850730000000     0.0407704  
H57      H      0.042990000000     0.217500000000     0.848970000000     0.0633322  
H58      H      0.035060000000     0.282170000000     0.599550000000     0.0460028  
H59      H      0.037860000000     0.279840000000     0.656760000000     0.0473049  
H60      H      0.958410000000     0.217760000000     0.658520000000     0.0689404  
H61      H      0.155290000000     0.965490000000     0.716030000000     0.0367243  
H62      H      0.097940000000     0.967140000000     0.713980000000     0.0391967  
H63      H      0.096570000000     0.029180000000     0.793480000000     0.0633028  
H64      H      0.347050000000     0.530230000000     0.715420000000     0.0385427  
H65      H      0.404430000000     0.528870000000     0.713610000000     0.0414315  
H66      H      0.405760000000     0.466490000000     0.792840000000     0.06313    
H67      H      0.033820000000     0.343860000000     0.790350000000     0.0353359  
H68      H      0.032480000000     0.401240000000     0.792290000000     0.038507   
H69      H      0.469180000000     0.402720000000     0.713790000000     0.0620943  
H70      H      0.468930000000     0.152080000000     0.791110000000     0.03988    
H71      H      0.470610000000     0.094740000000     0.793010000000     0.044201   
H72      H      0.031640000000     0.093560000000     0.712710000000     0.0666584  
H73      H      0.346530000000     0.787400000000     0.532720000000     0.0388194  
H74      H      0.403880000000     0.789040000000     0.531770000000     0.0441977  
H75      H      0.405360000000     0.710160000000     0.968870000000     0.0633278  
H76      H      0.096420000000     0.781810000000     0.469410000000     0.0426802  
H77      H      0.153540000000     0.779220000000     0.466170000000     0.0450846  
H78      H      0.155710000000     0.716990000000     0.045480000000     0.0663241  
H79      H      0.286220000000     0.844190000000     0.968700000000     0.0367834  
H80      H      0.288940000000     0.901520000000     0.970730000000     0.039786   
H81      H      0.210200000000     0.903350000000     0.033710000000     0.0606496  
H82      H      0.214870000000     0.652570000000     0.470060000000     0.0432513  
H83      H      0.213390000000     0.595240000000     0.471050000000     0.0483204  
H84      H      0.292300000000     0.594040000000     0.033960000000     0.0677931  
H85      H      0.218910000000     0.961200000000     0.407110000000     0.0372551  
H86      H      0.220500000000     0.958750000000     0.349740000000     0.0427471  
H87      H      0.283320000000     0.537610000000     0.347840000000     0.0681174  
H88      H      0.282980000000     0.960570000000     0.098420000000     0.0363737  
H89      H      0.281120000000     0.958130000000     0.155770000000     0.0399718  
H90      H      0.220150000000     0.538440000000     0.157490000000     0.0649494  
H91      H      0.466410000000     0.781990000000     0.407960000000     0.0363674  
H92      H      0.463720000000     0.779790000000     0.350730000000     0.0402444  
H93      H      0.042990000000     0.717500000000     0.348970000000     0.062976   
H94      H      0.035060000000     0.782170000000     0.099550000000     0.0454943  
H95      H      0.037860000000     0.779840000000     0.156760000000     0.0470714  
H96      H      0.958410000000     0.717760000000     0.158520000000     0.068705   
H97      H      0.155290000000     0.465490000000     0.216030000000     0.037392   
H98      H      0.097940000000     0.467140000000     0.213980000000     0.0395595  
H99      H      0.096570000000     0.529180000000     0.293480000000     0.0628792  
H100     H      0.347050000000     0.030230000000     0.215420000000     0.0390526  
H101     H      0.404430000000     0.028870000000     0.213610000000     0.0416658  
H102     H      0.405760000000     0.966490000000     0.292840000000     0.0623962  
H103     H      0.033820000000     0.843860000000     0.290350000000     0.0347907  
H104     H      0.032480000000     0.901240000000     0.292300000000     0.0372456  
H105     H      0.469180000000     0.902720000000     0.213790000000     0.0611257  
H106     H      0.468930000000     0.652080000000     0.291110000000     0.0392627  
H107     H      0.470610000000     0.594740000000     0.293010000000     0.0421972  
H108     H      0.031640000000     0.593560000000     0.212710000000     0.0649066  
H109     H      0.346530000000     0.787400000000     0.032720000000     0.0410211  
H110     H      0.403880000000     0.789040000000     0.031770000000     0.0426185  
H111     H      0.405360000000     0.710160000000     0.468870000000     0.0641977  
H112     H      0.096420000000     0.781810000000     0.969410000000     0.0436083  
H113     H      0.153540000000     0.779220000000     0.966170000000     0.0455662  
H114     H      0.155710000000     0.716990000000     0.545480000000     0.0664784  
H115     H      0.286220000000     0.844190000000     0.468700000000     0.0362246  
H116     H      0.288940000000     0.901520000000     0.470730000000     0.039376   
H117     H      0.210200000000     0.903350000000     0.533710000000     0.0609177  
H118     H      0.214870000000     0.652570000000     0.970060000000     0.0436602  
H119     H      0.213390000000     0.595240000000     0.971050000000     0.0485618  
H120     H      0.292300000000     0.594040000000     0.533960000000     0.0680631  
H121     H      0.218910000000     0.961200000000     0.907110000000     0.03883    
H122     H      0.220500000000     0.958750000000     0.849740000000     0.0431265  
H123     H      0.283320000000     0.537610000000     0.847840000000     0.06826    
H124     H      0.282980000000     0.960570000000     0.598420000000     0.036996   
H125     H      0.281120000000     0.958130000000     0.655770000000     0.040149   
H126     H      0.220150000000     0.538440000000     0.657490000000     0.0650114  
H127     H      0.466410000000     0.781990000000     0.907960000000     0.0378819  
H128     H      0.463720000000     0.779790000000     0.850730000000     0.0406332  
H129     H      0.042990000000     0.717500000000     0.848970000000     0.0631659  
H130     H      0.035060000000     0.782170000000     0.599550000000     0.0458054  
H131     H      0.037860000000     0.779840000000     0.656760000000     0.0471837  
H132     H      0.958410000000     0.717760000000     0.658520000000     0.0687799  
H133     H      0.155290000000     0.465490000000     0.716030000000     0.0374925  
H134     H      0.097940000000     0.467140000000     0.713980000000     0.039754   
H135     H      0.096570000000     0.529180000000     0.793480000000     0.0632497  
H136     H      0.347050000000     0.030230000000     0.715420000000     0.0391573  
H137     H      0.404430000000     0.028870000000     0.713610000000     0.0418661  
H138     H      0.405760000000     0.966490000000     0.792840000000     0.0627452  
H139     H      0.033820000000     0.843860000000     0.790350000000     0.0350839  
H140     H      0.032480000000     0.901240000000     0.792290000000     0.0376747  
H141     H      0.469180000000     0.902720000000     0.713790000000     0.0613077  
H142     H      0.468930000000     0.652080000000     0.791110000000     0.03949    
H143     H      0.470610000000     0.594740000000     0.793010000000     0.0425527  
H144     H      0.031640000000     0.593560000000     0.712710000000     0.0650766  
H145     H      0.846530000000     0.287400000000     0.532720000000     0.0392217  
H146     H      0.903880000000     0.289040000000     0.531770000000     0.0455188  
H147     H      0.905360000000     0.210160000000     0.968870000000     0.0649522  
H148     H      0.596420000000     0.281820000000     0.469410000000     0.043462   
H149     H      0.653540000000     0.279220000000     0.466170000000     0.045391   
H150     H      0.655710000000     0.216990000000     0.045480000000     0.0665502  
H151     H      0.786220000000     0.344190000000     0.968700000000     0.0372289  
H152     H      0.788940000000     0.401520000000     0.970730000000     0.0408659  
H153     H      0.710200000000     0.403350000000     0.033710000000     0.0616321  
H154     H      0.714870000000     0.152560000000     0.470060000000     0.0436495  
H155     H      0.713390000000     0.095240000000     0.471050000000     0.049908   
H156     H      0.792300000000     0.094040000000     0.033960000000     0.0695604  
H157     H      0.718910000000     0.461200000000     0.407110000000     0.0377737  
H158     H      0.720500000000     0.458750000000     0.349740000000     0.0436387  
H159     H      0.783320000000     0.037610000000     0.347840000000     0.0681317  
H160     H      0.782980000000     0.460570000000     0.098420000000     0.0368954  
H161     H      0.781120000000     0.458130000000     0.155770000000     0.0406734  
H162     H      0.720150000000     0.038440000000     0.157490000000     0.0647374  
H163     H      0.966410000000     0.281990000000     0.407960000000     0.0368253  
H164     H      0.963720000000     0.279790000000     0.350730000000     0.0405645  
H165     H      0.542990000000     0.217500000000     0.348970000000     0.0633756  
H166     H      0.535060000000     0.282170000000     0.099550000000     0.0453072  
H167     H      0.537860000000     0.279840000000     0.156760000000     0.0471064  
H168     H      0.458410000000     0.217760000000     0.158520000000     0.0682003  
H169     H      0.655290000000     0.965490000000     0.216030000000     0.0368422  
H170     H      0.597940000000     0.967140000000     0.213980000000     0.0396831  
H171     H      0.596570000000     0.029180000000     0.293480000000     0.0635643  
H172     H      0.847050000000     0.530230000000     0.215420000000     0.0387715  
H173     H      0.904430000000     0.528870000000     0.213610000000     0.0426192  
H174     H      0.905760000000     0.466490000000     0.292840000000     0.064129   
H175     H      0.533820000000     0.343860000000     0.290350000000     0.035665   
H176     H      0.532480000000     0.401240000000     0.292300000000     0.0385105  
H177     H      0.969180000000     0.402720000000     0.213790000000     0.0619514  
H178     H      0.968930000000     0.152080000000     0.291110000000     0.0401893  
H179     H      0.970610000000     0.094740000000     0.293010000000     0.0442446  
H180     H      0.531640000000     0.093560000000     0.212710000000     0.0668213  
H181     H      0.846530000000     0.287400000000     0.032720000000     0.0414136  
H182     H      0.903880000000     0.289040000000     0.031770000000     0.0439385  
H183     H      0.905360000000     0.210160000000     0.468870000000     0.0658273  
H184     H      0.596420000000     0.281820000000     0.969410000000     0.0443918  
H185     H      0.653540000000     0.279220000000     0.966170000000     0.0458732  
H186     H      0.655710000000     0.216990000000     0.545480000000     0.0667041  
H187     H      0.786220000000     0.344190000000     0.468700000000     0.036675   
H188     H      0.788940000000     0.401520000000     0.470730000000     0.0404623  
H189     H      0.710200000000     0.403350000000     0.533710000000     0.0619044  
H190     H      0.714870000000     0.152560000000     0.970060000000     0.0440545  
H191     H      0.713390000000     0.095240000000     0.971050000000     0.0501445  
H192     H      0.792300000000     0.094040000000     0.533960000000     0.0698319  
H193     H      0.718910000000     0.461200000000     0.907110000000     0.0393501  
H194     H      0.720500000000     0.458750000000     0.849740000000     0.0440169  
H195     H      0.783320000000     0.037610000000     0.847840000000     0.0682739  
H196     H      0.782980000000     0.460570000000     0.598420000000     0.0375182  
H197     H      0.781120000000     0.458130000000     0.655770000000     0.040851   
H198     H      0.720150000000     0.038440000000     0.657490000000     0.0647991  
H199     H      0.966410000000     0.281990000000     0.907960000000     0.0383332  
H200     H      0.963720000000     0.279790000000     0.850730000000     0.0409512  
H201     H      0.542990000000     0.217500000000     0.848970000000     0.0635648  
H202     H      0.535060000000     0.282170000000     0.599550000000     0.0456187  
H203     H      0.537860000000     0.279840000000     0.656760000000     0.0472207  
H204     H      0.458410000000     0.217760000000     0.658520000000     0.0682765  
H205     H      0.655290000000     0.965490000000     0.716030000000     0.0369414  
H206     H      0.597940000000     0.967140000000     0.713980000000     0.0398765  
H207     H      0.596570000000     0.029180000000     0.793480000000     0.0639304  
H208     H      0.847050000000     0.530230000000     0.715420000000     0.0388753  
H209     H      0.904430000000     0.528870000000     0.713610000000     0.0428185  
H210     H      0.905760000000     0.466490000000     0.792840000000     0.0644739  
H211     H      0.533820000000     0.343860000000     0.790350000000     0.0359572  
H212     H      0.532480000000     0.401240000000     0.792290000000     0.0389373  
H213     H      0.969180000000     0.402720000000     0.713790000000     0.0621349  
H214     H      0.968930000000     0.152080000000     0.791110000000     0.0404115  
H215     H      0.970610000000     0.094740000000     0.793010000000     0.0445919  
H216     H      0.531640000000     0.093560000000     0.712710000000     0.0669924  
H217     H      0.846530000000     0.787400000000     0.532720000000     0.0390698  
H218     H      0.903880000000     0.789040000000     0.531770000000     0.0452637  
H219     H      0.905360000000     0.710160000000     0.968870000000     0.0646197  
H220     H      0.596420000000     0.781810000000     0.469410000000     0.0432501  
H221     H      0.653540000000     0.779220000000     0.466170000000     0.0452528  
H222     H      0.655710000000     0.716990000000     0.045480000000     0.0664102  
H223     H      0.786220000000     0.844190000000     0.968700000000     0.0370184  
H224     H      0.788940000000     0.901520000000     0.970730000000     0.0401257  
H225     H      0.710200000000     0.903350000000     0.033710000000     0.0608531  
H226     H      0.714870000000     0.652570000000     0.470060000000     0.0433664  
H227     H      0.713390000000     0.595240000000     0.471050000000     0.0484832  
H228     H      0.792300000000     0.594040000000     0.033960000000     0.0680945  
H229     H      0.718910000000     0.961200000000     0.407110000000     0.0374327  
H230     H      0.720500000000     0.958750000000     0.349740000000     0.0428595  
H231     H      0.783320000000     0.537610000000     0.347840000000     0.0682602  
H232     H      0.782980000000     0.960570000000     0.098420000000     0.0366523  
H233     H      0.781120000000     0.958130000000     0.155770000000     0.0401655  
H234     H      0.720150000000     0.538440000000     0.157490000000     0.0650181  
H235     H      0.966410000000     0.781990000000     0.407960000000     0.0366028  
H236     H      0.963720000000     0.779790000000     0.350730000000     0.0404263  
H237     H      0.542990000000     0.717500000000     0.348970000000     0.0632091  
H238     H      0.535060000000     0.782170000000     0.099550000000     0.0451083  
H239     H      0.537860000000     0.779840000000     0.156760000000     0.0469838  
H240     H      0.458410000000     0.717760000000     0.158520000000     0.0680369  
H241     H      0.655290000000     0.465490000000     0.216030000000     0.0376093  
H242     H      0.597940000000     0.467140000000     0.213980000000     0.0402402  
H243     H      0.596570000000     0.529180000000     0.293480000000     0.0635094  
H244     H      0.847050000000     0.030230000000     0.215420000000     0.0393825  
H245     H      0.904430000000     0.028870000000     0.213610000000     0.0430473  
H246     H      0.905760000000     0.966490000000     0.292840000000     0.0637422  
H247     H      0.533820000000     0.843860000000     0.290350000000     0.0354118  
H248     H      0.532480000000     0.901240000000     0.292300000000     0.037675   
H249     H      0.969180000000     0.902720000000     0.213790000000     0.0611681  
H250     H      0.968930000000     0.652080000000     0.291110000000     0.0398008  
H251     H      0.970610000000     0.594740000000     0.293010000000     0.0425986  
H252     H      0.531640000000     0.593560000000     0.212710000000     0.0652366  
H253     H      0.846530000000     0.787400000000     0.032720000000     0.0412667  
H254     H      0.903880000000     0.789040000000     0.031770000000     0.0436845  
H255     H      0.905360000000     0.710160000000     0.468870000000     0.0654926  
H256     H      0.596420000000     0.781810000000     0.969410000000     0.0441781  
H257     H      0.653540000000     0.779220000000     0.966170000000     0.0457345  
H258     H      0.655710000000     0.716990000000     0.545480000000     0.0665648  
H259     H      0.786220000000     0.844190000000     0.468700000000     0.0364632  
H260     H      0.788940000000     0.901520000000     0.470730000000     0.0397193  
H261     H      0.710200000000     0.903350000000     0.533710000000     0.0611233  
H262     H      0.714870000000     0.652570000000     0.970060000000     0.0437757  
H263     H      0.713390000000     0.595240000000     0.971050000000     0.0487249  
H264     H      0.792300000000     0.594040000000     0.533960000000     0.0683642  
H265     H      0.718910000000     0.961200000000     0.907110000000     0.0390073  
H266     H      0.720500000000     0.958750000000     0.849740000000     0.0432388  
H267     H      0.783320000000     0.537610000000     0.847840000000     0.0684022  
H268     H      0.782980000000     0.960570000000     0.598420000000     0.0372741  
H269     H      0.781120000000     0.958130000000     0.655770000000     0.0403426  
H270     H      0.720150000000     0.538440000000     0.657490000000     0.0650803  
H271     H      0.966410000000     0.781990000000     0.907960000000     0.0381122  
H272     H      0.963720000000     0.779790000000     0.850730000000     0.0408134  
H273     H      0.542990000000     0.717500000000     0.848970000000     0.0633991  
H274     H      0.535060000000     0.782170000000     0.599550000000     0.0454188  
H275     H      0.537860000000     0.779840000000     0.656760000000     0.0470977  
H276     H      0.458410000000     0.717760000000     0.658520000000     0.0681131  
H277     H      0.655290000000     0.465490000000     0.716030000000     0.0377103  
H278     H      0.597940000000     0.467140000000     0.713980000000     0.0404359  
H279     H      0.596570000000     0.529180000000     0.793480000000     0.0638796  
H280     H      0.847050000000     0.030230000000     0.715420000000     0.0394871  
H281     H      0.904430000000     0.028870000000     0.713610000000     0.043247   
H282     H      0.905760000000     0.966490000000     0.792840000000     0.0640881  
H283     H      0.533820000000     0.843860000000     0.790350000000     0.0357045  
H284     H      0.532480000000     0.901240000000     0.792290000000     0.0381031  
H285     H      0.969180000000     0.902720000000     0.713790000000     0.0613506  
H286     H      0.968930000000     0.652080000000     0.791110000000     0.0400246  
H287     H      0.970610000000     0.594740000000     0.793010000000     0.0429503  
H288     H      0.531640000000     0.593560000000     0.712710000000     0.0654088  
N1       N      0.408640000000     0.249630000000     0.500290000000    -0.180579   
N2       N      0.342810000000     0.249350000000     0.999450000000    -0.180524   
N3       N      0.343890000000     0.205300000000     0.961600000000    -0.0287205  
N4       N      0.158550000000     0.247680000000     0.005480000000    -0.184531   
N5       N      0.092810000000     0.249180000000     0.008040000000    -0.202872   
N6       N      0.093940000000     0.213190000000     0.053810000000    -0.0279656  
N7       N      0.249830000000     0.406360000000     0.502540000000    -0.18324    
N8       N      0.247900000000     0.340620000000     0.501670000000    -0.199201   
N9       N      0.202440000000     0.341700000000     0.038050000000    -0.0278948  
N10      N      0.252750000000     0.090620000000     0.502610000000    -0.176872   
N11      N      0.252890000000     0.156430000000     0.503370000000    -0.197096   
N12      N      0.297080000000     0.155490000000     0.041040000000    -0.029459   
N13      N      0.252110000000     0.498010000000     0.344870000000    -0.179252   
N14      N      0.251740000000     0.499650000000     0.410610000000    -0.198315   
N15      N      0.287980000000     0.045210000000     0.409430000000    -0.0286733  
N16      N      0.250390000000     0.498090000000     0.160590000000    -0.182828   
N17      N      0.251110000000     0.999810000000     0.094800000000    -0.203143   
N18      N      0.216090000000     0.046310000000     0.095890000000    -0.0289567  
N19      N      0.503090000000     0.248300000000     0.345900000000    -0.182914   
N20      N      0.505040000000     0.249380000000     0.411710000000    -0.198859   
N21      N      0.050780000000     0.213340000000     0.410740000000    -0.0278674  
N22      N      0.498430000000     0.248420000000     0.161570000000    -0.178504   
N23      N      0.996360000000     0.249650000000     0.095820000000    -0.191117   
N24      N      0.950370000000     0.213950000000     0.096760000000    -0.0281217  
N25      N      0.093310000000     0.498390000000     0.253560000000    -0.182653   
N26      N      0.159080000000     0.997940000000     0.254780000000    -0.204226   
N27      N      0.158230000000     0.033660000000     0.300760000000    -0.029213   
N28      N      0.409040000000     0.997490000000     0.253090000000    -0.187488   
N29      N      0.343260000000     0.997580000000     0.254000000000    -0.204037   
N30      N      0.344130000000     0.461640000000     0.299810000000    -0.0282583  
N31      N      0.000660000000     0.405910000000     0.253180000000    -0.186976   
N32      N      0.000690000000     0.340140000000     0.252170000000    -0.203489   
N33      N      0.464100000000     0.341080000000     0.206880000000    -0.0282622  
N34      N      0.501370000000     0.090180000000     0.253030000000    -0.181048   
N35      N      0.000870000000     0.155970000000     0.251950000000    -0.202906   
N36      N      0.035860000000     0.155190000000     0.205400000000    -0.0281426  
N37      N      0.408640000000     0.249630000000     0.000290000000    -0.186485   
N38      N      0.342810000000     0.249350000000     0.499450000000    -0.197905   
N39      N      0.343890000000     0.205300000000     0.461600000000    -0.0298317  
N40      N      0.158550000000     0.247680000000     0.505480000000    -0.180202   
N41      N      0.092810000000     0.249180000000     0.508040000000    -0.196424   
N42      N      0.093940000000     0.213190000000     0.553810000000    -0.027992   
N43      N      0.249830000000     0.406360000000     0.002540000000    -0.187208   
N44      N      0.247900000000     0.340620000000     0.001670000000    -0.203703   
N45      N      0.202440000000     0.341700000000     0.538050000000    -0.0282443  
N46      N      0.252750000000     0.090620000000     0.002610000000    -0.1809     
N47      N      0.252890000000     0.156430000000     0.003370000000    -0.201633   
N48      N      0.297080000000     0.155490000000     0.541030000000    -0.029765   
N49      N      0.252110000000     0.498010000000     0.844870000000    -0.179233   
N50      N      0.251740000000     0.499650000000     0.910610000000    -0.197182   
N51      N      0.287980000000     0.045210000000     0.909430000000    -0.028722   
N52      N      0.250390000000     0.498090000000     0.660590000000    -0.182872   
N53      N      0.251110000000     0.999810000000     0.594800000000    -0.203548   
N54      N      0.216090000000     0.046310000000     0.595890000000    -0.0289636  
N55      N      0.503090000000     0.248300000000     0.845900000000    -0.182858   
N56      N      0.505040000000     0.249380000000     0.911710000000    -0.197927   
N57      N      0.050780000000     0.213340000000     0.910740000000    -0.0279307  
N58      N      0.498430000000     0.248420000000     0.661580000000    -0.178561   
N59      N      0.996360000000     0.249650000000     0.595820000000    -0.191277   
N60      N      0.950370000000     0.213950000000     0.596760000000    -0.0281173  
N61      N      0.093310000000     0.498390000000     0.753560000000    -0.18256    
N62      N      0.159080000000     0.997940000000     0.754780000000    -0.20423    
N63      N      0.158230000000     0.033660000000     0.800760000000    -0.029229   
N64      N      0.409040000000     0.997490000000     0.753090000000    -0.187417   
N65      N      0.343260000000     0.997580000000     0.754000000000    -0.20404    
N66      N      0.344130000000     0.461640000000     0.799810000000    -0.0282743  
N67      N      0.000660000000     0.405910000000     0.753180000000    -0.186905   
N68      N      0.000690000000     0.340140000000     0.752170000000    -0.203479   
N69      N      0.464100000000     0.341080000000     0.706870000000    -0.0282477  
N70      N      0.501370000000     0.090180000000     0.753030000000    -0.18099    
N71      N      0.000870000000     0.155970000000     0.751950000000    -0.202899   
N72      N      0.035860000000     0.155190000000     0.705400000000    -0.0281387  
N73      N      0.408640000000     0.749630000000     0.500290000000    -0.180648   
N74      N      0.342810000000     0.749350000000     0.999450000000    -0.180496   
N75      N      0.343890000000     0.705300000000     0.961600000000    -0.0286538  
N76      N      0.158550000000     0.747680000000     0.005480000000    -0.184563   
N77      N      0.092810000000     0.749180000000     0.008040000000    -0.202917   
N78      N      0.093940000000     0.713190000000     0.053810000000    -0.0279473  
N79      N      0.249830000000     0.906360000000     0.502540000000    -0.18295    
N80      N      0.247900000000     0.840620000000     0.501670000000    -0.199215   
N81      N      0.202440000000     0.841700000000     0.038050000000    -0.0278835  
N82      N      0.252750000000     0.590620000000     0.502610000000    -0.178124   
N83      N      0.252890000000     0.656430000000     0.503370000000    -0.197026   
N84      N      0.297080000000     0.655490000000     0.041040000000    -0.0293942  
N85      N      0.252110000000     0.998010000000     0.344870000000    -0.184567   
N86      N      0.251740000000     0.999650000000     0.410610000000    -0.202754   
N87      N      0.287980000000     0.545210000000     0.409430000000    -0.0281515  
N88      N      0.250390000000     0.998090000000     0.160590000000    -0.188097   
N89      N      0.251110000000     0.499810000000     0.094800000000    -0.198715   
N90      N      0.216090000000     0.546310000000     0.095890000000    -0.0284423  
N91      N      0.503090000000     0.748300000000     0.345900000000    -0.182955   
N92      N      0.505040000000     0.749380000000     0.411710000000    -0.19891    
N93      N      0.050780000000     0.713340000000     0.410740000000    -0.0278483  
N94      N      0.498430000000     0.748420000000     0.161570000000    -0.178525   
N95      N      0.996360000000     0.749650000000     0.095820000000    -0.191148   
N96      N      0.950370000000     0.713950000000     0.096760000000    -0.0280986  
N97      N      0.093310000000     0.998390000000     0.253560000000    -0.187227   
N98      N      0.159080000000     0.497940000000     0.254780000000    -0.199006   
N99      N      0.158230000000     0.533660000000     0.300760000000    -0.0283362  
N100     N      0.409040000000     0.497490000000     0.253090000000    -0.182959   
N101     N      0.343260000000     0.497580000000     0.254000000000    -0.198928   
N102     N      0.344130000000     0.961640000000     0.299810000000    -0.0278648  
N103     N      0.000660000000     0.905910000000     0.253180000000    -0.186694   
N104     N      0.000690000000     0.840140000000     0.252170000000    -0.203518   
N105     N      0.464100000000     0.841080000000     0.206880000000    -0.0282677  
N106     N      0.501370000000     0.590180000000     0.253030000000    -0.182406   
N107     N      0.000870000000     0.655970000000     0.251950000000    -0.202888   
N108     N      0.035860000000     0.655190000000     0.205400000000    -0.0281029  
N109     N      0.408640000000     0.749630000000     0.000290000000    -0.186559   
N110     N      0.342810000000     0.749350000000     0.499450000000    -0.197898   
N111     N      0.343890000000     0.705300000000     0.461600000000    -0.029766   
N112     N      0.158550000000     0.747680000000     0.505480000000    -0.180231   
N113     N      0.092810000000     0.749180000000     0.508040000000    -0.196464   
N114     N      0.093940000000     0.713190000000     0.553810000000    -0.0279737  
N115     N      0.249830000000     0.906360000000     0.002540000000    -0.186917   
N116     N      0.247900000000     0.840620000000     0.001670000000    -0.203714   
N117     N      0.202440000000     0.841700000000     0.538050000000    -0.0282332  
N118     N      0.252750000000     0.590620000000     0.002610000000    -0.182158   
N119     N      0.252890000000     0.656430000000     0.003370000000    -0.201575   
N120     N      0.297080000000     0.655490000000     0.541030000000    -0.0297006  
N121     N      0.252110000000     0.998010000000     0.844870000000    -0.184534   
N122     N      0.251740000000     0.999650000000     0.910610000000    -0.201617   
N123     N      0.287980000000     0.545210000000     0.909430000000    -0.0282021  
N124     N      0.250390000000     0.998090000000     0.660590000000    -0.188142   
N125     N      0.251110000000     0.499810000000     0.594800000000    -0.199121   
N126     N      0.216090000000     0.546310000000     0.595890000000    -0.0284489  
N127     N      0.503090000000     0.748300000000     0.845900000000    -0.182899   
N128     N      0.505040000000     0.749380000000     0.911710000000    -0.197978   
N129     N      0.050780000000     0.713340000000     0.910740000000    -0.0279117  
N130     N      0.498430000000     0.748420000000     0.661580000000    -0.178583   
N131     N      0.996360000000     0.749650000000     0.595820000000    -0.191308   
N132     N      0.950370000000     0.713950000000     0.596760000000    -0.0280942  
N133     N      0.093310000000     0.998390000000     0.753560000000    -0.187127   
N134     N      0.159080000000     0.497940000000     0.754780000000    -0.199015   
N135     N      0.158230000000     0.533660000000     0.800760000000    -0.0283532  
N136     N      0.409040000000     0.497490000000     0.753090000000    -0.182891   
N137     N      0.343260000000     0.497580000000     0.754000000000    -0.198934   
N138     N      0.344130000000     0.961640000000     0.799810000000    -0.0278813  
N139     N      0.000660000000     0.905910000000     0.753180000000    -0.186623   
N140     N      0.000690000000     0.840140000000     0.752170000000    -0.203509   
N141     N      0.464100000000     0.841080000000     0.706870000000    -0.0282533  
N142     N      0.501370000000     0.590180000000     0.753030000000    -0.182345   
N143     N      0.000870000000     0.655970000000     0.751950000000    -0.202881   
N144     N      0.035860000000     0.655190000000     0.705400000000    -0.0280991  
N145     N      0.908640000000     0.249630000000     0.500290000000    -0.179537   
N146     N      0.842810000000     0.249350000000     0.999450000000    -0.180596   
N147     N      0.843890000000     0.205300000000     0.961600000000    -0.0287777  
N148     N      0.658550000000     0.247680000000     0.005480000000    -0.184495   
N149     N      0.592810000000     0.249180000000     0.008040000000    -0.203165   
N150     N      0.593940000000     0.213190000000     0.053810000000    -0.0280652  
N151     N      0.749830000000     0.406360000000     0.502540000000    -0.183175   
N152     N      0.747900000000     0.340620000000     0.501670000000    -0.199188   
N153     N      0.702450000000     0.341700000000     0.038050000000    -0.0279434  
N154     N      0.752750000000     0.090620000000     0.502610000000    -0.176828   
N155     N      0.752890000000     0.156430000000     0.503370000000    -0.197078   
N156     N      0.797080000000     0.155490000000     0.041040000000    -0.0295137  
N157     N      0.752110000000     0.498010000000     0.344870000000    -0.17923    
N158     N      0.751740000000     0.499650000000     0.410610000000    -0.198278   
N159     N      0.787980000000     0.045210000000     0.409430000000    -0.0286943  
N160     N      0.750390000000     0.498090000000     0.160590000000    -0.182798   
N161     N      0.751110000000     0.999810000000     0.094800000000    -0.20309    
N162     N      0.716090000000     0.046310000000     0.095890000000    -0.0289849  
N163     N      0.003090000000     0.248300000000     0.345900000000    -0.187191   
N164     N      0.005040000000     0.249380000000     0.411710000000    -0.202559   
N165     N      0.550780000000     0.213340000000     0.410740000000    -0.028078   
N166     N      0.998430000000     0.248420000000     0.161570000000    -0.173964   
N167     N      0.496360000000     0.249650000000     0.095820000000    -0.196059   
N168     N      0.450370000000     0.213950000000     0.096760000000    -0.0279654  
N169     N      0.593310000000     0.498390000000     0.253560000000    -0.182895   
N170     N      0.659080000000     0.997940000000     0.254780000000    -0.204208   
N171     N      0.658230000000     0.033660000000     0.300760000000    -0.0292229  
N172     N      0.909040000000     0.997490000000     0.253090000000    -0.186351   
N173     N      0.843260000000     0.997580000000     0.254000000000    -0.204053   
N174     N      0.844130000000     0.461640000000     0.299810000000    -0.0282933  
N175     N      0.500660000000     0.405910000000     0.253180000000    -0.183222   
N176     N      0.500690000000     0.340140000000     0.252170000000    -0.199182   
N177     N      0.964100000000     0.341080000000     0.206880000000    -0.028864   
N178     N      0.001370000000     0.090180000000     0.253030000000    -0.184768   
N179     N      0.500870000000     0.155970000000     0.251950000000    -0.198695   
N180     N      0.535860000000     0.155190000000     0.205400000000    -0.0285826  
N181     N      0.908640000000     0.249630000000     0.000290000000    -0.185436   
N182     N      0.842810000000     0.249350000000     0.499450000000    -0.197949   
N183     N      0.843890000000     0.205300000000     0.461600000000    -0.0298876  
N184     N      0.658550000000     0.247680000000     0.505480000000    -0.180161   
N185     N      0.592810000000     0.249180000000     0.508040000000    -0.196708   
N186     N      0.593940000000     0.213190000000     0.553810000000    -0.0280917  
N187     N      0.749830000000     0.406360000000     0.002540000000    -0.187141   
N188     N      0.747900000000     0.340620000000     0.001670000000    -0.203687   
N189     N      0.702450000000     0.341700000000     0.538050000000    -0.0282932  
N190     N      0.752750000000     0.090620000000     0.002610000000    -0.180856   
N191     N      0.752890000000     0.156430000000     0.003370000000    -0.201612   
N192     N      0.797080000000     0.155490000000     0.541030000000    -0.0298197  
N193     N      0.752110000000     0.498010000000     0.844870000000    -0.17921    
N194     N      0.751740000000     0.499650000000     0.910610000000    -0.197146   
N195     N      0.787980000000     0.045210000000     0.909430000000    -0.028743   
N196     N      0.750390000000     0.498090000000     0.660590000000    -0.182842   
N197     N      0.751110000000     0.999810000000     0.594800000000    -0.203495   
N198     N      0.716090000000     0.046310000000     0.595890000000    -0.0289916  
N199     N      0.003090000000     0.248300000000     0.845900000000    -0.187127   
N200     N      0.005040000000     0.249380000000     0.911710000000    -0.201624   
N201     N      0.550780000000     0.213340000000     0.910740000000    -0.0281407  
N202     N      0.998430000000     0.248420000000     0.661580000000    -0.174024   
N203     N      0.496360000000     0.249650000000     0.595820000000    -0.196226   
N204     N      0.450370000000     0.213950000000     0.596760000000    -0.0279611  
N205     N      0.593310000000     0.498390000000     0.753560000000    -0.182801   
N206     N      0.659080000000     0.997940000000     0.754780000000    -0.204212   
N207     N      0.658230000000     0.033660000000     0.800760000000    -0.0292389  
N208     N      0.909040000000     0.997490000000     0.753090000000    -0.186281   
N209     N      0.843260000000     0.997580000000     0.754000000000    -0.204056   
N210     N      0.844130000000     0.461640000000     0.799810000000    -0.0283092  
N211     N      0.500660000000     0.405910000000     0.753180000000    -0.18315    
N212     N      0.500690000000     0.340140000000     0.752170000000    -0.199173   
N213     N      0.964100000000     0.341080000000     0.706870000000    -0.0288483  
N214     N      0.001370000000     0.090180000000     0.753030000000    -0.184708   
N215     N      0.500870000000     0.155970000000     0.751950000000    -0.19869    
N216     N      0.535860000000     0.155190000000     0.705400000000    -0.0285792  
N217     N      0.908640000000     0.749630000000     0.500290000000    -0.179604   
N218     N      0.842810000000     0.749350000000     0.999450000000    -0.180568   
N219     N      0.843890000000     0.705300000000     0.961600000000    -0.0287114  
N220     N      0.658550000000     0.747680000000     0.005480000000    -0.184528   
N221     N      0.592810000000     0.749180000000     0.008040000000    -0.203211   
N222     N      0.593940000000     0.713190000000     0.053810000000    -0.0280471  
N223     N      0.749830000000     0.906360000000     0.502540000000    -0.182885   
N224     N      0.747900000000     0.840620000000     0.501670000000    -0.199202   
N225     N      0.702450000000     0.841700000000     0.038050000000    -0.0279322  
N226     N      0.752750000000     0.590620000000     0.502610000000    -0.178078   
N227     N      0.752890000000     0.656430000000     0.503370000000    -0.197009   
N228     N      0.797080000000     0.655490000000     0.041040000000    -0.0294491  
N229     N      0.752110000000     0.998010000000     0.344870000000    -0.184538   
N230     N      0.751740000000     0.999650000000     0.410610000000    -0.202713   
N231     N      0.787980000000     0.545210000000     0.409430000000    -0.0281731  
N232     N      0.750390000000     0.998090000000     0.160590000000    -0.188063   
N233     N      0.751110000000     0.499810000000     0.094800000000    -0.198665   
N234     N      0.716090000000     0.546310000000     0.095890000000    -0.0284716  
N235     N      0.003090000000     0.748300000000     0.345900000000    -0.187236   
N236     N      0.005040000000     0.749380000000     0.411710000000    -0.202614   
N237     N      0.550780000000     0.713340000000     0.410740000000    -0.0280591  
N238     N      0.998430000000     0.748420000000     0.161570000000    -0.173979   
N239     N      0.496360000000     0.749650000000     0.095820000000    -0.196098   
N240     N      0.450370000000     0.713950000000     0.096760000000    -0.0279421  
N241     N      0.593310000000     0.998390000000     0.253560000000    -0.18747    
N242     N      0.659080000000     0.497940000000     0.254780000000    -0.198985   
N243     N      0.658230000000     0.533660000000     0.300760000000    -0.0283467  
N244     N      0.909040000000     0.497490000000     0.253090000000    -0.181831   
N245     N      0.843260000000     0.497580000000     0.254000000000    -0.198957   
N246     N      0.844130000000     0.961640000000     0.299810000000    -0.0279005  
N247     N      0.500660000000     0.905910000000     0.253180000000    -0.182939   
N248     N      0.500690000000     0.840140000000     0.252170000000    -0.199211   
N249     N      0.964100000000     0.841080000000     0.206880000000    -0.0288718  
N250     N      0.001370000000     0.590180000000     0.253030000000    -0.186132   
N251     N      0.500870000000     0.655970000000     0.251950000000    -0.198665   
N252     N      0.535860000000     0.655190000000     0.205400000000    -0.0285436  
N253     N      0.908640000000     0.749630000000     0.000290000000    -0.185509   
N254     N      0.842810000000     0.749350000000     0.499450000000    -0.197941   
N255     N      0.843890000000     0.705300000000     0.461600000000    -0.0298221  
N256     N      0.658550000000     0.747680000000     0.505480000000    -0.18019    
N257     N      0.592810000000     0.749180000000     0.508040000000    -0.196749   
N258     N      0.593940000000     0.713190000000     0.553810000000    -0.0280736  
N259     N      0.749830000000     0.906360000000     0.002540000000    -0.186851   
N260     N      0.747900000000     0.840620000000     0.001670000000    -0.203699   
N261     N      0.702450000000     0.841700000000     0.538050000000    -0.0282821  
N262     N      0.752750000000     0.590620000000     0.002610000000    -0.182113   
N263     N      0.752890000000     0.656430000000     0.003370000000    -0.201555   
N264     N      0.797080000000     0.655490000000     0.541030000000    -0.0297556  
N265     N      0.752110000000     0.998010000000     0.844870000000    -0.184506   
N266     N      0.751740000000     0.999650000000     0.910610000000    -0.201576   
N267     N      0.787980000000     0.545210000000     0.909430000000    -0.0282237  
N268     N      0.750390000000     0.998090000000     0.660590000000    -0.188109   
N269     N      0.751110000000     0.499810000000     0.594800000000    -0.199071   
N270     N      0.716090000000     0.546310000000     0.595890000000    -0.0284781  
N271     N      0.003090000000     0.748300000000     0.845900000000    -0.187172   
N272     N      0.005040000000     0.749380000000     0.911710000000    -0.201678   
N273     N      0.550780000000     0.713340000000     0.910740000000    -0.0281219  
N274     N      0.998430000000     0.748420000000     0.661580000000    -0.174039   
N275     N      0.496360000000     0.749650000000     0.595820000000    -0.196266   
N276     N      0.450370000000     0.713950000000     0.596760000000    -0.0279378  
N277     N      0.593310000000     0.998390000000     0.753560000000    -0.18737    
N278     N      0.659080000000     0.497940000000     0.754780000000    -0.198994   
N279     N      0.658230000000     0.533660000000     0.800760000000    -0.0283637  
N280     N      0.909040000000     0.497490000000     0.753090000000    -0.181763   
N281     N      0.843260000000     0.497580000000     0.754000000000    -0.198963   
N282     N      0.844130000000     0.961640000000     0.799810000000    -0.0279169  
N283     N      0.500660000000     0.905910000000     0.753180000000    -0.182869   
N284     N      0.500690000000     0.840140000000     0.752170000000    -0.199202   
N285     N      0.964100000000     0.841080000000     0.706870000000    -0.0288561  
N286     N      0.001370000000     0.590180000000     0.753030000000    -0.186071   
N287     N      0.500870000000     0.655970000000     0.751950000000    -0.19866    
N288     N      0.535860000000     0.655190000000     0.705400000000    -0.0285402  
O1       O      0.005400000000     0.042710000000     0.227120000000    -0.527529   
O2       O      0.496990000000     0.453330000000     0.227160000000    -0.548688   
O3       O      0.456430000000     0.002160000000     0.227000000000    -0.520844   
O4       O      0.046010000000     0.493870000000     0.227240000000    -0.543409   
O5       O      0.045800000000     0.002290000000     0.279410000000    -0.518708   
O6       O      0.456430000000     0.493790000000     0.279180000000    -0.548      
O7       O      0.005310000000     0.453260000000     0.279350000000    -0.542065   
O8       O      0.496920000000     0.042830000000     0.279280000000    -0.532254   
O9       O      0.474970000000     0.203170000000     0.258340000000    -0.547509   
O10      O      0.474420000000     0.292710000000     0.250150000000    -0.533652   
O11      O      0.473620000000     0.243830000000     0.209620000000    -0.538623   
O12      O      0.475780000000     0.252090000000     0.299130000000    -0.54856    
O13      O      0.027980000000     0.243980000000     0.297840000000    -0.54374    
O14      O      0.025760000000     0.252360000000     0.208330000000    -0.547721   
O15      O      0.026810000000     0.292930000000     0.257150000000    -0.546323   
O16      O      0.026960000000     0.203440000000     0.248800000000    -0.528659   
O17      O      0.295800000000     0.471410000000     0.256660000000    -0.533613   
O18      O      0.206230000000     0.471850000000     0.249050000000    -0.549527   
O19      O      0.254810000000     0.471670000000     0.207890000000    -0.547214   
O20      O      0.247240000000     0.471680000000     0.297590000000    -0.539377   
O21      O      0.255810000000     0.023820000000     0.297380000000    -0.529185   
O22      O      0.246810000000     0.023890000000     0.208120000000    -0.536883   
O23      O      0.206580000000     0.024050000000     0.257320000000    -0.521121   
O24      O      0.296050000000     0.023610000000     0.248420000000    -0.535958   
O25      O      0.277200000000     0.494030000000     0.047620000000    -0.545045   
O26      O      0.277860000000     0.002260000000     0.458080000000    -0.50652    
O27      O      0.278170000000     0.042840000000     0.006960000000    -0.517283   
O28      O      0.276860000000     0.453290000000     0.498660000000    -0.548497   
O29      O      0.224640000000     0.454200000000     0.006740000000    -0.543524   
O30      O      0.226040000000     0.043610000000     0.498290000000    -0.526576   
O31      O      0.225530000000     0.494770000000     0.457780000000    -0.549332   
O32      O      0.225140000000     0.003170000000     0.047280000000    -0.504287   
O33      O      0.494390000000     0.223360000000     0.048370000000    -0.521063   
O34      O      0.006940000000     0.223190000000     0.459240000000    -0.527102   
O35      O      0.045230000000     0.223110000000     0.010110000000    -0.520779   
O36      O      0.456130000000     0.223460000000     0.497570000000    -0.539152   
O37      O      0.455940000000     0.275650000000     0.005750000000    -0.545727   
O38      O      0.045720000000     0.275320000000     0.501910000000    -0.545072   
O39      O      0.498940000000     0.275430000000     0.458860000000    -0.551198   
O40      O      0.002700000000     0.275550000000     0.048650000000    -0.553419   
O41      O      0.205040000000     0.251560000000     0.477780000000    -0.546959   
O42      O      0.294570000000     0.245010000000     0.474890000000    -0.533064   
O43      O      0.246680000000     0.203440000000     0.476980000000    -0.542036   
O44      O      0.252950000000     0.293180000000     0.475870000000    -0.548743   
O45      O      0.246380000000     0.293440000000     0.028320000000    -0.530496   
O46      O      0.256640000000     0.204220000000     0.028820000000    -0.5266     
O47      O      0.296220000000     0.253790000000     0.026930000000    -0.53571    
O48      O      0.206840000000     0.243740000000     0.030020000000    -0.533969   
O49      O      0.347410000000     0.175380000000     0.967880000000    -0.076511   
O50      O      0.332970000000     0.213610000000     0.934040000000    -0.0885002  
O51      O      0.071600000000     0.226370000000     0.070400000000    -0.0954417  
O52      O      0.105390000000     0.186160000000     0.563110000000    -0.0891265  
O53      O      0.185450000000     0.319640000000     0.524930000000    -0.0998163  
O54      O      0.193670000000     0.353010000000     0.065320000000    -0.10251    
O55      O      0.326930000000     0.153210000000     0.033870000000    -0.0839529  
O56      O      0.289120000000     0.165240000000     0.069130000000    -0.0826884  
O57      O      0.274640000000     0.062610000000     0.431040000000    -0.0905665  
O58      O      0.315400000000     0.553710000000     0.398280000000    -0.0920854  
O59      O      0.230000000000     0.063340000000     0.074350000000    -0.0920092  
O60      O      0.188870000000     0.055560000000     0.106930000000    -0.0932     
O61      O      0.067350000000     0.226440000000     0.433140000000    -0.0995385  
O62      O      0.560010000000     0.186290000000     0.399290000000    -0.0964712  
O63      O      0.433840000000     0.227300000000     0.074480000000    -0.0935208  
O64      O      0.940960000000     0.186920000000     0.108120000000    -0.0863996  
O65      O      0.180030000000     0.520140000000     0.317790000000    -0.0988719  
O66      O      0.147130000000     0.060940000000     0.309720000000    -0.0947467  
O67      O      0.322570000000     0.975140000000     0.317150000000    -0.100696   
O68      O      0.355160000000     0.434220000000     0.308430000000    -0.100723   
O69      O      0.477210000000     0.319320000000     0.189510000000    -0.099822   
O70      O      0.436640000000     0.352260000000     0.198530000000    -0.10036    
O71      O      0.021940000000     0.176790000000     0.188450000000    -0.0950951  
O72      O      0.063100000000     0.144220000000     0.196110000000    -0.0912908  
O73      O      0.005400000000     0.042710000000     0.727120000000    -0.527405   
O74      O      0.496990000000     0.453330000000     0.727160000000    -0.548542   
O75      O      0.456430000000     0.002160000000     0.727000000000    -0.520714   
O76      O      0.046010000000     0.493870000000     0.727240000000    -0.543268   
O77      O      0.045800000000     0.002290000000     0.779410000000    -0.518512   
O78      O      0.456430000000     0.493790000000     0.779180000000    -0.547782   
O79      O      0.005310000000     0.453260000000     0.779350000000    -0.541815   
O80      O      0.496920000000     0.042830000000     0.779280000000    -0.532062   
O81      O      0.474970000000     0.203170000000     0.758340000000    -0.547473   
O82      O      0.474420000000     0.292710000000     0.750150000000    -0.533631   
O83      O      0.473620000000     0.243830000000     0.709620000000    -0.538662   
O84      O      0.475780000000     0.252090000000     0.799130000000    -0.548443   
O85      O      0.027980000000     0.243980000000     0.797840000000    -0.543644   
O86      O      0.025760000000     0.252360000000     0.708330000000    -0.547764   
O87      O      0.026810000000     0.292930000000     0.757150000000    -0.546248   
O88      O      0.026960000000     0.203440000000     0.748800000000    -0.528648   
O89      O      0.295800000000     0.471410000000     0.756660000000    -0.533598   
O90      O      0.206230000000     0.471850000000     0.749050000000    -0.549474   
O91      O      0.254810000000     0.471670000000     0.707890000000    -0.547105   
O92      O      0.247240000000     0.471680000000     0.797590000000    -0.539282   
O93      O      0.255810000000     0.023820000000     0.797380000000    -0.529163   
O94      O      0.246810000000     0.023890000000     0.708120000000    -0.536795   
O95      O      0.206580000000     0.024050000000     0.757320000000    -0.521139   
O96      O      0.296050000000     0.023610000000     0.748420000000    -0.535941   
O97      O      0.277200000000     0.494030000000     0.547620000000    -0.548569   
O98      O      0.277860000000     0.002260000000     0.958080000000    -0.494839   
O99      O      0.278170000000     0.042840000000     0.506960000000    -0.523121   
O100     O      0.276860000000     0.453290000000     0.998660000000    -0.525196   
O101     O      0.224640000000     0.454200000000     0.506740000000    -0.549628   
O102     O      0.226040000000     0.043610000000     0.998290000000    -0.503411   
O103     O      0.225530000000     0.494770000000     0.957780000000    -0.537289   
O104     O      0.225140000000     0.003170000000     0.547280000000    -0.507856   
O105     O      0.494390000000     0.223360000000     0.548370000000    -0.524935   
O106     O      0.006940000000     0.223190000000     0.959240000000    -0.515179   
O107     O      0.045230000000     0.223110000000     0.510100000000    -0.523008   
O108     O      0.456130000000     0.223460000000     0.997570000000    -0.516267   
O109     O      0.455940000000     0.275650000000     0.505750000000    -0.548822   
O110     O      0.045720000000     0.275320000000     0.001910000000    -0.547238   
O111     O      0.498940000000     0.275430000000     0.958860000000    -0.540522   
O112     O      0.002700000000     0.275550000000     0.548650000000    -0.555758   
O113     O      0.205040000000     0.251560000000     0.977780000000    -0.535222   
O114     O      0.294570000000     0.245010000000     0.974900000000    -0.519393   
O115     O      0.246680000000     0.203440000000     0.976980000000    -0.530643   
O116     O      0.252950000000     0.293180000000     0.975870000000    -0.53708    
O117     O      0.246380000000     0.293440000000     0.528320000000    -0.535379   
O118     O      0.256640000000     0.204220000000     0.528820000000    -0.531401   
O119     O      0.296220000000     0.253790000000     0.526930000000    -0.542713   
O120     O      0.206840000000     0.243740000000     0.530010000000    -0.539018   
O121     O      0.347410000000     0.175380000000     0.467880000000    -0.0815157  
O122     O      0.332970000000     0.213610000000     0.434040000000    -0.0894282  
O123     O      0.071600000000     0.226370000000     0.570400000000    -0.0952998  
O124     O      0.105390000000     0.186160000000     0.063110000000    -0.0908412  
O125     O      0.185450000000     0.319640000000     0.024930000000    -0.103216   
O126     O      0.193670000000     0.353010000000     0.565320000000    -0.101631   
O127     O      0.326930000000     0.153210000000     0.533870000000    -0.0799533  
O128     O      0.289120000000     0.165240000000     0.569130000000    -0.0822051  
O129     O      0.274640000000     0.062610000000     0.931040000000    -0.0872158  
O130     O      0.315400000000     0.553710000000     0.898280000000    -0.0902202  
O131     O      0.230000000000     0.063340000000     0.574350000000    -0.0908501  
O132     O      0.188870000000     0.055560000000     0.606930000000    -0.0921202  
O133     O      0.067350000000     0.226440000000     0.933140000000    -0.096146   
O134     O      0.560010000000     0.186290000000     0.899290000000    -0.0945916  
O135     O      0.433840000000     0.227300000000     0.574480000000    -0.0922262  
O136     O      0.940960000000     0.186920000000     0.608120000000    -0.0853653  
O137     O      0.180030000000     0.520140000000     0.817790000000    -0.0984101  
O138     O      0.147130000000     0.060940000000     0.809720000000    -0.0942047  
O139     O      0.322570000000     0.975140000000     0.817150000000    -0.10026    
O140     O      0.355160000000     0.434220000000     0.808430000000    -0.100101   
O141     O      0.477210000000     0.319320000000     0.689500000000    -0.0996601  
O142     O      0.436640000000     0.352260000000     0.698530000000    -0.100057   
O143     O      0.021940000000     0.176790000000     0.688460000000    -0.09496    
O144     O      0.063100000000     0.144220000000     0.696110000000    -0.0910562  
O145     O      0.005400000000     0.542710000000     0.227120000000    -0.54122    
O146     O      0.496990000000     0.953330000000     0.227160000000    -0.544613   
O147     O      0.456430000000     0.502170000000     0.227000000000    -0.547174   
O148     O      0.046010000000     0.993870000000     0.227240000000    -0.53666    
O149     O      0.045800000000     0.502300000000     0.279410000000    -0.544961   
O150     O      0.456430000000     0.993790000000     0.279180000000    -0.541136   
O151     O      0.005310000000     0.953260000000     0.279350000000    -0.538055   
O152     O      0.496920000000     0.542830000000     0.279280000000    -0.545951   
O153     O      0.474970000000     0.703170000000     0.258340000000    -0.547657   
O154     O      0.474420000000     0.792710000000     0.250150000000    -0.533636   
O155     O      0.473620000000     0.743830000000     0.209620000000    -0.538658   
O156     O      0.475780000000     0.752090000000     0.299130000000    -0.548622   
O157     O      0.027980000000     0.743980000000     0.297840000000    -0.543813   
O158     O      0.025760000000     0.752360000000     0.208330000000    -0.547738   
O159     O      0.026810000000     0.792930000000     0.257150000000    -0.546206   
O160     O      0.026960000000     0.703440000000     0.248800000000    -0.528867   
O161     O      0.295800000000     0.971410000000     0.256660000000    -0.52814    
O162     O      0.206230000000     0.971850000000     0.249050000000    -0.544469   
O163     O      0.254810000000     0.971670000000     0.207890000000    -0.542121   
O164     O      0.247240000000     0.971680000000     0.297590000000    -0.534085   
O165     O      0.255810000000     0.523820000000     0.297380000000    -0.541831   
O166     O      0.246810000000     0.523890000000     0.208120000000    -0.549846   
O167     O      0.206580000000     0.524050000000     0.257320000000    -0.533634   
O168     O      0.296050000000     0.523610000000     0.248420000000    -0.549063   
O169     O      0.277200000000     0.994030000000     0.047620000000    -0.538333   
O170     O      0.277860000000     0.502260000000     0.458080000000    -0.532923   
O171     O      0.278170000000     0.542840000000     0.006960000000    -0.53077    
O172     O      0.276860000000     0.953290000000     0.498660000000    -0.544425   
O173     O      0.224640000000     0.954200000000     0.006740000000    -0.53946    
O174     O      0.226040000000     0.543610000000     0.498290000000    -0.540121   
O175     O      0.225530000000     0.994770000000     0.457780000000    -0.542661   
O176     O      0.225140000000     0.503170000000     0.047280000000    -0.530585   
O177     O      0.494390000000     0.723360000000     0.048370000000    -0.521252   
O178     O      0.006940000000     0.723190000000     0.459240000000    -0.527315   
O179     O      0.045230000000     0.723110000000     0.010110000000    -0.520969   
O180     O      0.456130000000     0.723460000000     0.497570000000    -0.53937    
O181     O      0.455940000000     0.775650000000     0.005750000000    -0.545904   
O182     O      0.045720000000     0.775320000000     0.501910000000    -0.545252   
O183     O      0.498940000000     0.775430000000     0.458860000000    -0.551389   
O184     O      0.002700000000     0.775550000000     0.048650000000    -0.553606   
O185     O      0.205040000000     0.751560000000     0.477780000000    -0.547011   
O186     O      0.294570000000     0.745010000000     0.474890000000    -0.533071   
O187     O      0.246680000000     0.703440000000     0.476980000000    -0.542097   
O188     O      0.252950000000     0.793180000000     0.475870000000    -0.548788   
O189     O      0.246380000000     0.793440000000     0.028320000000    -0.530508   
O190     O      0.256640000000     0.704220000000     0.028820000000    -0.526609   
O191     O      0.296220000000     0.753790000000     0.026930000000    -0.535726   
O192     O      0.206840000000     0.743740000000     0.030020000000    -0.533994   
O193     O      0.347410000000     0.675380000000     0.967880000000    -0.0771908  
O194     O      0.332970000000     0.713610000000     0.934040000000    -0.0887441  
O195     O      0.071600000000     0.726370000000     0.070400000000    -0.0956884  
O196     O      0.105390000000     0.686160000000     0.563110000000    -0.0899907  
O197     O      0.185450000000     0.819640000000     0.524930000000    -0.100061   
O198     O      0.193670000000     0.853010000000     0.065320000000    -0.103165   
O199     O      0.326930000000     0.653210000000     0.033870000000    -0.0848577  
O200     O      0.289120000000     0.665240000000     0.069130000000    -0.0831831  
O201     O      0.274640000000     0.562610000000     0.431040000000    -0.0932892  
O202     O      0.315400000000     0.053710000000     0.398280000000    -0.0888232  
O203     O      0.230000000000     0.563340000000     0.074350000000    -0.0947872  
O204     O      0.188870000000     0.555560000000     0.106930000000    -0.0962289  
O205     O      0.067350000000     0.726440000000     0.433140000000    -0.0998074  
O206     O      0.560010000000     0.686290000000     0.399290000000    -0.0973834  
O207     O      0.433840000000     0.727300000000     0.074480000000    -0.0937679  
O208     O      0.940960000000     0.686920000000     0.108120000000    -0.0872958  
O209     O      0.180030000000     0.020140000000     0.317790000000    -0.0916176  
O210     O      0.147130000000     0.560940000000     0.309720000000    -0.0965066  
O211     O      0.322570000000     0.475140000000     0.317150000000    -0.0967388  
O212     O      0.355160000000     0.934220000000     0.308430000000    -0.101829   
O213     O      0.477210000000     0.819320000000     0.189510000000    -0.100062   
O214     O      0.436640000000     0.852260000000     0.198530000000    -0.101004   
O215     O      0.021940000000     0.676790000000     0.188450000000    -0.0955178  
O216     O      0.063100000000     0.644220000000     0.196110000000    -0.0924334  
O217     O      0.005400000000     0.542710000000     0.727120000000    -0.541088   
O218     O      0.496990000000     0.953330000000     0.727160000000    -0.54447    
O219     O      0.456430000000     0.502170000000     0.727000000000    -0.547022   
O220     O      0.046010000000     0.993870000000     0.727240000000    -0.536528   
O221     O      0.045800000000     0.502300000000     0.779410000000    -0.544728   
O222     O      0.456430000000     0.993790000000     0.779180000000    -0.540925   
O223     O      0.005310000000     0.953260000000     0.779350000000    -0.537809   
O224     O      0.496920000000     0.542830000000     0.779280000000    -0.545739   
O225     O      0.474970000000     0.703170000000     0.758340000000    -0.547621   
O226     O      0.474420000000     0.792710000000     0.750150000000    -0.533615   
O227     O      0.473620000000     0.743830000000     0.709620000000    -0.538698   
O228     O      0.475780000000     0.752090000000     0.799130000000    -0.548505   
O229     O      0.027980000000     0.743980000000     0.797840000000    -0.543718   
O230     O      0.025760000000     0.752360000000     0.708330000000    -0.54778    
O231     O      0.026810000000     0.792930000000     0.757150000000    -0.546131   
O232     O      0.026960000000     0.703440000000     0.748800000000    -0.528855   
O233     O      0.295800000000     0.971410000000     0.756660000000    -0.528129   
O234     O      0.206230000000     0.971850000000     0.749050000000    -0.54442    
O235     O      0.254810000000     0.971670000000     0.707890000000    -0.54202    
O236     O      0.247240000000     0.971680000000     0.797590000000    -0.533995   
O237     O      0.255810000000     0.523820000000     0.797380000000    -0.541788   
O238     O      0.246810000000     0.523890000000     0.708120000000    -0.549749   
O239     O      0.206580000000     0.524050000000     0.757320000000    -0.53364    
O240     O      0.296050000000     0.523610000000     0.748420000000    -0.549032   
O241     O      0.277200000000     0.994030000000     0.547620000000    -0.541835   
O242     O      0.277860000000     0.502260000000     0.958080000000    -0.521113   
O243     O      0.278170000000     0.542840000000     0.506960000000    -0.536658   
O244     O      0.276860000000     0.953290000000     0.998660000000    -0.521171   
O245     O      0.224640000000     0.954200000000     0.506740000000    -0.545538   
O246     O      0.226040000000     0.543610000000     0.998290000000    -0.516825   
O247     O      0.225530000000     0.994770000000     0.957780000000    -0.530661   
O248     O      0.225140000000     0.503170000000     0.547280000000    -0.534203   
O249     O      0.494390000000     0.723360000000     0.548370000000    -0.525128   
O250     O      0.006940000000     0.723190000000     0.959240000000    -0.515374   
O251     O      0.045230000000     0.723110000000     0.510100000000    -0.523202   
O252     O      0.456130000000     0.723460000000     0.997570000000    -0.516449   
O253     O      0.455940000000     0.775650000000     0.505750000000    -0.549005   
O254     O      0.045720000000     0.775320000000     0.001910000000    -0.547417   
O255     O      0.498940000000     0.775430000000     0.958860000000    -0.540706   
O256     O      0.002700000000     0.775550000000     0.548650000000    -0.555946   
O257     O      0.205040000000     0.751560000000     0.977780000000    -0.535261   
O258     O      0.294570000000     0.745010000000     0.974900000000    -0.519386   
O259     O      0.246680000000     0.703440000000     0.976980000000    -0.530683   
O260     O      0.252950000000     0.793180000000     0.975870000000    -0.537121   
O261     O      0.246380000000     0.793440000000     0.528320000000    -0.535394   
O262     O      0.256640000000     0.704220000000     0.528820000000    -0.531416   
O263     O      0.296220000000     0.753790000000     0.526930000000    -0.542737   
O264     O      0.206840000000     0.743740000000     0.530010000000    -0.539047   
O265     O      0.347410000000     0.675380000000     0.467880000000    -0.0822125  
O266     O      0.332970000000     0.713610000000     0.434040000000    -0.0896743  
O267     O      0.071600000000     0.726370000000     0.570400000000    -0.0955466  
O268     O      0.105390000000     0.686160000000     0.063110000000    -0.0917076  
O269     O      0.185450000000     0.819640000000     0.024930000000    -0.103459   
O270     O      0.193670000000     0.853010000000     0.565320000000    -0.102288   
O271     O      0.326930000000     0.653210000000     0.533870000000    -0.0808526  
O272     O      0.289120000000     0.665240000000     0.569130000000    -0.0826989  
O273     O      0.274640000000     0.562610000000     0.931040000000    -0.089917   
O274     O      0.315400000000     0.053710000000     0.898280000000    -0.0869743  
O275     O      0.230000000000     0.563340000000     0.574350000000    -0.0936276  
O276     O      0.188870000000     0.555560000000     0.606930000000    -0.0951468  
O277     O      0.067350000000     0.726440000000     0.933140000000    -0.0964085  
O278     O      0.560010000000     0.686290000000     0.899290000000    -0.0954959  
O279     O      0.433840000000     0.727300000000     0.574480000000    -0.0924716  
O280     O      0.940960000000     0.686920000000     0.608120000000    -0.0862601  
O281     O      0.180030000000     0.020140000000     0.817790000000    -0.0911742  
O282     O      0.147130000000     0.560940000000     0.809720000000    -0.0959585  
O283     O      0.322570000000     0.475140000000     0.817150000000    -0.0963093  
O284     O      0.355160000000     0.934220000000     0.808430000000    -0.101205   
O285     O      0.477210000000     0.819320000000     0.689500000000    -0.0999006  
O286     O      0.436640000000     0.852260000000     0.698530000000    -0.100702   
O287     O      0.021940000000     0.676790000000     0.688460000000    -0.0953824  
O288     O      0.063100000000     0.644220000000     0.696110000000    -0.0921979  
O289     O      0.505400000000     0.042710000000     0.227120000000    -0.533177   
O290     O      0.996990000000     0.453330000000     0.227160000000    -0.526923   
O291     O      0.956430000000     0.002160000000     0.227000000000    -0.509645   
O292     O      0.546010000000     0.493870000000     0.227240000000    -0.546734   
O293     O      0.545800000000     0.002290000000     0.279410000000    -0.522007   
O294     O      0.956430000000     0.493790000000     0.279180000000    -0.536626   
O295     O      0.505310000000     0.453260000000     0.279350000000    -0.547655   
O296     O      0.996920000000     0.042830000000     0.279280000000    -0.510628   
O297     O      0.974970000000     0.203170000000     0.258340000000    -0.537127   
O298     O      0.974420000000     0.292710000000     0.250150000000    -0.523968   
O299     O      0.973620000000     0.243830000000     0.209620000000    -0.541241   
O300     O      0.975780000000     0.252090000000     0.299130000000    -0.538235   
O301     O      0.527970000000     0.243980000000     0.297840000000    -0.547681   
O302     O      0.525750000000     0.252360000000     0.208330000000    -0.539025   
O303     O      0.526810000000     0.292930000000     0.257150000000    -0.550093   
O304     O      0.526960000000     0.203440000000     0.248800000000    -0.532549   
O305     O      0.795800000000     0.471410000000     0.256660000000    -0.533567   
O306     O      0.706230000000     0.471850000000     0.249050000000    -0.549482   
O307     O      0.754810000000     0.471670000000     0.207890000000    -0.547159   
O308     O      0.747240000000     0.471680000000     0.297590000000    -0.53935    
O309     O      0.755810000000     0.023820000000     0.297380000000    -0.529169   
O310     O      0.746810000000     0.023890000000     0.208120000000    -0.536852   
O311     O      0.706580000000     0.024050000000     0.257320000000    -0.521127   
O312     O      0.796050000000     0.023610000000     0.248420000000    -0.535875   
O313     O      0.777200000000     0.494030000000     0.047620000000    -0.54483    
O314     O      0.777860000000     0.002260000000     0.458080000000    -0.506372   
O315     O      0.778170000000     0.042840000000     0.006960000000    -0.517121   
O316     O      0.776860000000     0.453290000000     0.498660000000    -0.548283   
O317     O      0.724640000000     0.454200000000     0.006740000000    -0.543373   
O318     O      0.726040000000     0.043610000000     0.498290000000    -0.526465   
O319     O      0.725530000000     0.494770000000     0.457780000000    -0.549186   
O320     O      0.725140000000     0.003170000000     0.047280000000    -0.50418    
O321     O      0.994390000000     0.223360000000     0.048370000000    -0.512606   
O322     O      0.506940000000     0.223190000000     0.459240000000    -0.532184   
O323     O      0.545230000000     0.223110000000     0.010110000000    -0.523564   
O324     O      0.956130000000     0.223460000000     0.497570000000    -0.528385   
O325     O      0.955940000000     0.275650000000     0.005750000000    -0.535208   
O326     O      0.545720000000     0.275320000000     0.501910000000    -0.548036   
O327     O      0.998940000000     0.275430000000     0.458860000000    -0.529769   
O328     O      0.502710000000     0.275550000000     0.048650000000    -0.545558   
O329     O      0.705040000000     0.251560000000     0.477780000000    -0.546945   
O330     O      0.794570000000     0.245010000000     0.474890000000    -0.533008   
O331     O      0.746680000000     0.203440000000     0.476980000000    -0.542015   
O332     O      0.752960000000     0.293180000000     0.475870000000    -0.548642   
O333     O      0.746380000000     0.293440000000     0.028320000000    -0.530455   
O334     O      0.756640000000     0.204220000000     0.028820000000    -0.526603   
O335     O      0.796220000000     0.253790000000     0.026930000000    -0.535664   
O336     O      0.706840000000     0.243740000000     0.030020000000    -0.53396    
O337     O      0.847410000000     0.175380000000     0.967880000000    -0.0757366  
O338     O      0.832970000000     0.213610000000     0.934040000000    -0.0880108  
O339     O      0.571600000000     0.226370000000     0.070400000000    -0.093372   
O340     O      0.605390000000     0.186160000000     0.563110000000    -0.0880875  
O341     O      0.685450000000     0.319640000000     0.524930000000    -0.0995851  
O342     O      0.693670000000     0.353010000000     0.065320000000    -0.102149   
O343     O      0.826930000000     0.153210000000     0.033870000000    -0.0833246  
O344     O      0.789120000000     0.165240000000     0.069130000000    -0.0824864  
O345     O      0.774640000000     0.062610000000     0.431040000000    -0.0903552  
O346     O      0.815400000000     0.553710000000     0.398280000000    -0.091256   
O347     O      0.730000000000     0.063340000000     0.074350000000    -0.09186    
O348     O      0.688860000000     0.055560000000     0.106930000000    -0.092763   
O349     O      0.567350000000     0.226440000000     0.433140000000    -0.099187   
O350     O      0.060010000000     0.186290000000     0.399290000000    -0.0981652  
O351     O      0.933840000000     0.227300000000     0.074480000000    -0.0924637  
O352     O      0.440960000000     0.186920000000     0.108120000000    -0.0889725  
O353     O      0.680030000000     0.520140000000     0.317790000000    -0.0986824  
O354     O      0.647130000000     0.060940000000     0.309720000000    -0.0942435  
O355     O      0.822570000000     0.975140000000     0.317150000000    -0.100313   
O356     O      0.855160000000     0.434220000000     0.308430000000    -0.0997071  
O357     O      0.977210000000     0.319320000000     0.189510000000    -0.095109   
O358     O      0.936640000000     0.352260000000     0.198530000000    -0.0990367  
O359     O      0.521940000000     0.176790000000     0.188450000000    -0.0906371  
O360     O      0.563100000000     0.144220000000     0.196110000000    -0.0903108  
O361     O      0.505400000000     0.042710000000     0.727120000000    -0.533048   
O362     O      0.996990000000     0.453330000000     0.727160000000    -0.526784   
O363     O      0.956430000000     0.002160000000     0.727000000000    -0.509516   
O364     O      0.546010000000     0.493870000000     0.727240000000    -0.546593   
O365     O      0.545800000000     0.002290000000     0.779410000000    -0.521809   
O366     O      0.956430000000     0.493790000000     0.779180000000    -0.536419   
O367     O      0.505310000000     0.453260000000     0.779350000000    -0.547402   
O368     O      0.996920000000     0.042830000000     0.779280000000    -0.510456   
O369     O      0.974970000000     0.203170000000     0.758340000000    -0.537096   
O370     O      0.974420000000     0.292710000000     0.750150000000    -0.52395    
O371     O      0.973620000000     0.243830000000     0.709620000000    -0.541279   
O372     O      0.975780000000     0.252090000000     0.799130000000    -0.538132   
O373     O      0.527970000000     0.243980000000     0.797840000000    -0.547583   
O374     O      0.525750000000     0.252360000000     0.708330000000    -0.539066   
O375     O      0.526810000000     0.292930000000     0.757150000000    -0.550017   
O376     O      0.526960000000     0.203440000000     0.748800000000    -0.532536   
O377     O      0.795800000000     0.471410000000     0.756660000000    -0.533552   
O378     O      0.706230000000     0.471850000000     0.749050000000    -0.549429   
O379     O      0.754810000000     0.471670000000     0.707890000000    -0.54705    
O380     O      0.747240000000     0.471680000000     0.797590000000    -0.539255   
O381     O      0.755810000000     0.023820000000     0.797380000000    -0.529148   
O382     O      0.746810000000     0.023890000000     0.708120000000    -0.536764   
O383     O      0.706580000000     0.024050000000     0.757320000000    -0.521145   
O384     O      0.796050000000     0.023610000000     0.748420000000    -0.535858   
O385     O      0.777200000000     0.494030000000     0.547620000000    -0.548351   
O386     O      0.777860000000     0.002260000000     0.958080000000    -0.494702   
O387     O      0.778170000000     0.042840000000     0.506960000000    -0.522955   
O388     O      0.776860000000     0.453290000000     0.998660000000    -0.525003   
O389     O      0.724640000000     0.454200000000     0.506740000000    -0.549472   
O390     O      0.726040000000     0.043610000000     0.998290000000    -0.503307   
O391     O      0.725530000000     0.494770000000     0.957780000000    -0.537144   
O392     O      0.725140000000     0.003170000000     0.547280000000    -0.507749   
O393     O      0.994390000000     0.223360000000     0.548370000000    -0.516448   
O394     O      0.506940000000     0.223190000000     0.959240000000    -0.520209   
O395     O      0.545230000000     0.223110000000     0.510100000000    -0.525811   
O396     O      0.956130000000     0.223460000000     0.997570000000    -0.505612   
O397     O      0.955940000000     0.275650000000     0.505750000000    -0.538259   
O398     O      0.545720000000     0.275320000000     0.001910000000    -0.550195   
O399     O      0.998940000000     0.275430000000     0.958860000000    -0.519204   
O400     O      0.502710000000     0.275550000000     0.548650000000    -0.547891   
O401     O      0.705040000000     0.251560000000     0.977780000000    -0.535205   
O402     O      0.794570000000     0.245010000000     0.974900000000    -0.519355   
O403     O      0.746680000000     0.203440000000     0.976980000000    -0.530626   
O404     O      0.752960000000     0.293180000000     0.975870000000    -0.536986   
O405     O      0.746380000000     0.293440000000     0.528320000000    -0.535337   
O406     O      0.756640000000     0.204220000000     0.528820000000    -0.531403   
O407     O      0.796220000000     0.253790000000     0.526930000000    -0.542661   
O408     O      0.706840000000     0.243740000000     0.530010000000    -0.539009   
O409     O      0.847410000000     0.175380000000     0.467880000000    -0.0807291  
O410     O      0.832970000000     0.213610000000     0.434040000000    -0.0889357  
O411     O      0.571600000000     0.226370000000     0.570400000000    -0.0932264  
O412     O      0.605390000000     0.186160000000     0.063110000000    -0.0898076  
O413     O      0.685450000000     0.319640000000     0.024930000000    -0.102989   
O414     O      0.693670000000     0.353010000000     0.565320000000    -0.101268   
O415     O      0.826930000000     0.153210000000     0.533870000000    -0.0793294  
O416     O      0.789120000000     0.165240000000     0.569130000000    -0.0820038  
O417     O      0.774640000000     0.062610000000     0.931040000000    -0.0870082  
O418     O      0.815400000000     0.553710000000     0.898280000000    -0.0893968  
O419     O      0.730000000000     0.063340000000     0.574350000000    -0.0907002  
O420     O      0.688860000000     0.055560000000     0.606930000000    -0.0916806  
O421     O      0.567350000000     0.226440000000     0.933140000000    -0.0957896  
O422     O      0.060010000000     0.186290000000     0.899290000000    -0.096286   
O423     O      0.933840000000     0.227300000000     0.574480000000    -0.0911703  
O424     O      0.440960000000     0.186920000000     0.608120000000    -0.0879375  
O425     O      0.680030000000     0.520140000000     0.817790000000    -0.0982205  
O426     O      0.647130000000     0.060940000000     0.809720000000    -0.0937016  
O427     O      0.822570000000     0.975140000000     0.817150000000    -0.0998785  
O428     O      0.855160000000     0.434220000000     0.808430000000    -0.0990886  
O429     O      0.977210000000     0.319320000000     0.689500000000    -0.0949475  
O430     O      0.936640000000     0.352260000000     0.698530000000    -0.0987338  
O431     O      0.521940000000     0.176790000000     0.688460000000    -0.0904972  
O432     O      0.563100000000     0.144220000000     0.696110000000    -0.0900741  
O433     O      0.505400000000     0.542710000000     0.227120000000    -0.546917   
O434     O      0.996990000000     0.953330000000     0.227160000000    -0.522889   
O435     O      0.956430000000     0.502170000000     0.227000000000    -0.535841   
O436     O      0.546010000000     0.993870000000     0.227240000000    -0.539959   
O437     O      0.545800000000     0.502300000000     0.279410000000    -0.548309   
O438     O      0.956430000000     0.993790000000     0.279180000000    -0.529807   
O439     O      0.505310000000     0.953260000000     0.279350000000    -0.54362    
O440     O      0.996920000000     0.542830000000     0.279280000000    -0.524196   
O441     O      0.974970000000     0.703170000000     0.258340000000    -0.537253   
O442     O      0.974420000000     0.792710000000     0.250150000000    -0.523948   
O443     O      0.973620000000     0.743830000000     0.209620000000    -0.541281   
O444     O      0.975780000000     0.752090000000     0.299130000000    -0.538284   
O445     O      0.527970000000     0.743980000000     0.297840000000    -0.547759   
O446     O      0.525750000000     0.752360000000     0.208330000000    -0.539028   
O447     O      0.526810000000     0.792930000000     0.257150000000    -0.549977   
O448     O      0.526960000000     0.703440000000     0.248800000000    -0.532763   
O449     O      0.795800000000     0.971410000000     0.256660000000    -0.5281     
O450     O      0.706230000000     0.971850000000     0.249050000000    -0.544428   
O451     O      0.754810000000     0.971670000000     0.207890000000    -0.54207    
O452     O      0.747240000000     0.971680000000     0.297590000000    -0.534064   
O453     O      0.755810000000     0.523820000000     0.297380000000    -0.541801   
O454     O      0.746810000000     0.523890000000     0.208120000000    -0.549801   
O455     O      0.706580000000     0.524050000000     0.257320000000    -0.533637   
O456     O      0.796050000000     0.523610000000     0.248420000000    -0.548955   
O457     O      0.777200000000     0.994030000000     0.047620000000    -0.538126   
O458     O      0.777860000000     0.502260000000     0.458080000000    -0.532735   
O459     O      0.778170000000     0.542840000000     0.006960000000    -0.530587   
O460     O      0.776860000000     0.953290000000     0.498660000000    -0.544216   
O461     O      0.724640000000     0.954200000000     0.006740000000    -0.539312   
O462     O      0.726040000000     0.543610000000     0.498290000000    -0.540002   
O463     O      0.725530000000     0.994770000000     0.457780000000    -0.542525   
O464     O      0.725140000000     0.503170000000     0.047280000000    -0.530455   
O465     O      0.994390000000     0.723360000000     0.048370000000    -0.512775   
O466     O      0.506940000000     0.723190000000     0.459240000000    -0.532404   
O467     O      0.545230000000     0.723110000000     0.010110000000    -0.523757   
O468     O      0.956130000000     0.723460000000     0.497570000000    -0.528584   
O469     O      0.955940000000     0.775650000000     0.005750000000    -0.535376   
O470     O      0.545720000000     0.775320000000     0.501910000000    -0.548218   
O471     O      0.998940000000     0.775430000000     0.458860000000    -0.529937   
O472     O      0.502710000000     0.775550000000     0.048650000000    -0.545736   
O473     O      0.705040000000     0.751560000000     0.477780000000    -0.546997   
O474     O      0.794570000000     0.745010000000     0.474890000000    -0.533015   
O475     O      0.746680000000     0.703440000000     0.476980000000    -0.542075   
O476     O      0.752960000000     0.793180000000     0.475870000000    -0.548686   
O477     O      0.746380000000     0.793440000000     0.028320000000    -0.530467   
O478     O      0.756640000000     0.704220000000     0.028820000000    -0.526612   
O479     O      0.796220000000     0.753790000000     0.026930000000    -0.53568    
O480     O      0.706840000000     0.743740000000     0.030020000000    -0.533986   
O481     O      0.847410000000     0.675380000000     0.967880000000    -0.0764119  
O482     O      0.832970000000     0.713610000000     0.934040000000    -0.088253   
O483     O      0.571600000000     0.726370000000     0.070400000000    -0.0936159  
O484     O      0.605390000000     0.686160000000     0.563110000000    -0.0889504  
O485     O      0.685450000000     0.819640000000     0.524930000000    -0.099831   
O486     O      0.693670000000     0.853010000000     0.065320000000    -0.102805   
O487     O      0.826930000000     0.653210000000     0.033870000000    -0.0842247  
O488     O      0.789120000000     0.665240000000     0.069130000000    -0.0829794  
O489     O      0.774640000000     0.562610000000     0.431040000000    -0.0930737  
O490     O      0.815400000000     0.053710000000     0.398280000000    -0.0880061  
O491     O      0.730000000000     0.563340000000     0.074350000000    -0.0946346  
O492     O      0.688860000000     0.555560000000     0.106930000000    -0.0957908  
O493     O      0.567350000000     0.726440000000     0.433140000000    -0.0994557  
O494     O      0.060010000000     0.686290000000     0.399290000000    -0.0990794  
O495     O      0.933840000000     0.727300000000     0.074480000000    -0.0927083  
O496     O      0.440960000000     0.686920000000     0.108120000000    -0.08988    
O497     O      0.680030000000     0.020140000000     0.317790000000    -0.0914341  
O498     O      0.647130000000     0.560940000000     0.309720000000    -0.0960022  
O499     O      0.822570000000     0.475140000000     0.317150000000    -0.0963606  
O500     O      0.855160000000     0.934220000000     0.308430000000    -0.100811   
O501     O      0.977210000000     0.819320000000     0.189510000000    -0.0953432  
O502     O      0.936640000000     0.852260000000     0.198530000000    -0.0996789  
O503     O      0.521940000000     0.676790000000     0.188450000000    -0.0910543  
O504     O      0.563100000000     0.644220000000     0.196110000000    -0.0914524  
O505     O      0.505400000000     0.542710000000     0.727120000000    -0.54678    
O506     O      0.996990000000     0.953330000000     0.727160000000    -0.522752   
O507     O      0.956430000000     0.502170000000     0.727000000000    -0.53569    
O508     O      0.546010000000     0.993870000000     0.727240000000    -0.539828   
O509     O      0.545800000000     0.502300000000     0.779410000000    -0.548074   
O510     O      0.956430000000     0.993790000000     0.779180000000    -0.529607   
O511     O      0.505310000000     0.953260000000     0.779350000000    -0.543371   
O512     O      0.996920000000     0.542830000000     0.779280000000    -0.524004   
O513     O      0.974970000000     0.703170000000     0.758340000000    -0.537222   
O514     O      0.974420000000     0.792710000000     0.750150000000    -0.523931   
O515     O      0.973620000000     0.743830000000     0.709620000000    -0.541318   
O516     O      0.975780000000     0.752090000000     0.799130000000    -0.538181   
O517     O      0.527970000000     0.743980000000     0.797840000000    -0.547661   
O518     O      0.525750000000     0.752360000000     0.708330000000    -0.53907    
O519     O      0.526810000000     0.792930000000     0.757150000000    -0.549901   
O520     O      0.526960000000     0.703440000000     0.748800000000    -0.53275    
O521     O      0.795800000000     0.971410000000     0.756660000000    -0.52809    
O522     O      0.706230000000     0.971850000000     0.749050000000    -0.544379   
O523     O      0.754810000000     0.971670000000     0.707890000000    -0.541969   
O524     O      0.747240000000     0.971680000000     0.797590000000    -0.533974   
O525     O      0.755810000000     0.523820000000     0.797380000000    -0.541758   
O526     O      0.746810000000     0.523890000000     0.708120000000    -0.549705   
O527     O      0.706580000000     0.524050000000     0.757320000000    -0.533643   
O528     O      0.796050000000     0.523610000000     0.748420000000    -0.548925   
O529     O      0.777200000000     0.994030000000     0.547620000000    -0.541625   
O530     O      0.777860000000     0.502260000000     0.958080000000    -0.520937   
O531     O      0.778170000000     0.542840000000     0.506960000000    -0.536472   
O532     O      0.776860000000     0.953290000000     0.998660000000    -0.520983   
O533     O      0.724640000000     0.954200000000     0.506740000000    -0.545385   
O534     O      0.726040000000     0.543610000000     0.998290000000    -0.516712   
O535     O      0.725530000000     0.994770000000     0.957780000000    -0.530525   
O536     O      0.725140000000     0.503170000000     0.547280000000    -0.534073   
O537     O      0.994390000000     0.723360000000     0.548370000000    -0.516621   
O538     O      0.506940000000     0.723190000000     0.959240000000    -0.520411   
O539     O      0.545230000000     0.723110000000     0.510100000000    -0.526009   
O540     O      0.956130000000     0.723460000000     0.997570000000    -0.505775   
O541     O      0.955940000000     0.775650000000     0.505750000000    -0.538433   
O542     O      0.545720000000     0.775320000000     0.001910000000    -0.550376   
O543     O      0.998940000000     0.775430000000     0.958860000000    -0.519364   
O544     O      0.502710000000     0.775550000000     0.548650000000    -0.54807    
O545     O      0.705040000000     0.751560000000     0.977780000000    -0.535244   
O546     O      0.794570000000     0.745010000000     0.974900000000    -0.519347   
O547     O      0.746680000000     0.703440000000     0.976980000000    -0.530666   
O548     O      0.752960000000     0.793180000000     0.975870000000    -0.537026   
O549     O      0.746380000000     0.793440000000     0.528320000000    -0.535352   
O550     O      0.756640000000     0.704220000000     0.528820000000    -0.531418   
O551     O      0.796220000000     0.753790000000     0.526930000000    -0.542684   
O552     O      0.706840000000     0.743740000000     0.530010000000    -0.539038   
O553     O      0.847410000000     0.675380000000     0.467880000000    -0.0814212  
O554     O      0.832970000000     0.713610000000     0.434040000000    -0.0891802  
O555     O      0.571600000000     0.726370000000     0.570400000000    -0.0934704  
O556     O      0.605390000000     0.686160000000     0.063110000000    -0.0906727  
O557     O      0.685450000000     0.819640000000     0.024930000000    -0.103233   
O558     O      0.693670000000     0.853010000000     0.565320000000    -0.101927   
O559     O      0.826930000000     0.653210000000     0.533870000000    -0.080224   
O560     O      0.789120000000     0.665240000000     0.569130000000    -0.0824959  
O561     O      0.774640000000     0.562610000000     0.931040000000    -0.0897052  
O562     O      0.815400000000     0.053710000000     0.898280000000    -0.0861631  
O563     O      0.730000000000     0.563340000000     0.574350000000    -0.0934742  
O564     O      0.688860000000     0.555560000000     0.606930000000    -0.0947059  
O565     O      0.567350000000     0.726440000000     0.933140000000    -0.0960519  
O566     O      0.060010000000     0.686290000000     0.899290000000    -0.0971925  
O567     O      0.933840000000     0.727300000000     0.574480000000    -0.0914132  
O568     O      0.440960000000     0.686920000000     0.608120000000    -0.0888436  
O569     O      0.680030000000     0.020140000000     0.817790000000    -0.0909906  
O570     O      0.647130000000     0.560940000000     0.809720000000    -0.0954541  
O571     O      0.822570000000     0.475140000000     0.817150000000    -0.095933   
O572     O      0.855160000000     0.934220000000     0.808430000000    -0.100191   
O573     O      0.977210000000     0.819320000000     0.689500000000    -0.0951827  
O574     O      0.936640000000     0.852260000000     0.698530000000    -0.0993771  
O575     O      0.521940000000     0.676790000000     0.688460000000    -0.090914   
O576     O      0.563100000000     0.644220000000     0.696110000000    -0.0912148  
V1       V      0.501220000000     0.998020000000     0.224850000000     1.36939    
V2       V      0.501110000000     0.498050000000     0.281580000000     1.40172    
V3       V      0.472420000000     0.247940000000     0.254420000000     1.40805    
V4       V      0.029150000000     0.248180000000     0.253020000000     1.39448    
V5       V      0.251010000000     0.469360000000     0.252750000000     1.40001    
V6       V      0.251310000000     0.026100000000     0.252760000000     1.43055    
V7       V      0.279810000000     0.998030000000     0.002850000000     1.34409    
V8       V      0.223070000000     0.998940000000     0.502510000000     1.37848    
V9       V      0.000670000000     0.221000000000     0.003810000000     1.36576    
V10      V      0.000840000000     0.277750000000     0.503770000000     1.37798    
V11      V      0.249740000000     0.248280000000     0.474100000000     1.4088     
V12      V      0.251600000000     0.248830000000     0.030800000000     1.39871    
V13      V      0.501220000000     0.998020000000     0.724850000000     1.36961    
V14      V      0.501110000000     0.498050000000     0.781580000000     1.40264    
V15      V      0.472420000000     0.247940000000     0.754420000000     1.40809    
V16      V      0.029150000000     0.248180000000     0.753020000000     1.39446    
V17      V      0.251010000000     0.469360000000     0.752750000000     1.40006    
V18      V      0.251310000000     0.026100000000     0.752760000000     1.43045    
V19      V      0.279810000000     0.998030000000     0.502850000000     1.37294    
V20      V      0.223070000000     0.998940000000     0.002510000000     1.34971    
V21      V      0.000670000000     0.221000000000     0.503810000000     1.39615    
V22      V      0.000840000000     0.277750000000     0.003770000000     1.36523    
V23      V      0.249740000000     0.248280000000     0.974100000000     1.41705    
V24      V      0.251600000000     0.248830000000     0.530800000000     1.41745    
V25      V      0.501220000000     0.498020000000     0.224850000000     1.40226    
V26      V      0.501110000000     0.998050000000     0.281580000000     1.36873    
V27      V      0.472420000000     0.747940000000     0.254420000000     1.40803    
V28      V      0.029150000000     0.748170000000     0.253020000000     1.39447    
V29      V      0.251010000000     0.969360000000     0.252750000000     1.3793     
V30      V      0.251310000000     0.526100000000     0.252760000000     1.42064    
V31      V      0.279810000000     0.498030000000     0.002850000000     1.37688    
V32      V      0.223070000000     0.498940000000     0.502510000000     1.4118     
V33      V      0.000670000000     0.721000000000     0.003810000000     1.36488    
V34      V      0.000840000000     0.777750000000     0.503770000000     1.37755    
V35      V      0.249740000000     0.748280000000     0.474100000000     1.40881    
V36      V      0.251600000000     0.748830000000     0.030800000000     1.39874    
V37      V      0.501220000000     0.498020000000     0.724850000000     1.40248    
V38      V      0.501110000000     0.998050000000     0.781580000000     1.36969    
V39      V      0.472420000000     0.747940000000     0.754420000000     1.40806    
V40      V      0.029150000000     0.748170000000     0.753020000000     1.39445    
V41      V      0.251010000000     0.969360000000     0.752750000000     1.37936    
V42      V      0.251310000000     0.526100000000     0.752760000000     1.42056    
V43      V      0.279810000000     0.498030000000     0.502850000000     1.4059     
V44      V      0.223070000000     0.498940000000     0.002510000000     1.38285    
V45      V      0.000670000000     0.721000000000     0.503810000000     1.39531    
V46      V      0.000840000000     0.777750000000     0.003770000000     1.36481    
V47      V      0.249740000000     0.748280000000     0.974100000000     1.41707    
V48      V      0.251600000000     0.748830000000     0.530800000000     1.4175     
V49      V      0.001220000000     0.998020000000     0.224850000000     1.34238    
V50      V      0.001110000000     0.498050000000     0.281580000000     1.37464    
V51      V      0.972420000000     0.247940000000     0.254420000000     1.41852    
V52      V      0.529150000000     0.248180000000     0.253020000000     1.40934    
V53      V      0.751010000000     0.469360000000     0.252750000000     1.40002    
V54      V      0.751310000000     0.026100000000     0.252760000000     1.43054    
V55      V      0.779810000000     0.998030000000     0.002850000000     1.34494    
V56      V      0.723070000000     0.998940000000     0.502510000000     1.37875    
V57      V      0.500670000000     0.221000000000     0.003810000000     1.39025    
V58      V      0.500840000000     0.277750000000     0.503770000000     1.40289    
V59      V      0.749740000000     0.248280000000     0.474100000000     1.40877    
V60      V      0.751600000000     0.248830000000     0.030800000000     1.39868    
V61      V      0.001220000000     0.998020000000     0.724850000000     1.3426     
V62      V      0.001110000000     0.498050000000     0.781580000000     1.37558    
V63      V      0.972420000000     0.247940000000     0.754420000000     1.41855    
V64      V      0.529150000000     0.248180000000     0.753020000000     1.40932    
V65      V      0.751010000000     0.469360000000     0.752750000000     1.40007    
V66      V      0.751310000000     0.026100000000     0.752760000000     1.43045    
V67      V      0.779810000000     0.998030000000     0.502850000000     1.37377    
V68      V      0.723070000000     0.998940000000     0.002510000000     1.34996    
V69      V      0.500670000000     0.221000000000     0.503810000000     1.4208     
V70      V      0.500840000000     0.277750000000     0.003770000000     1.39       
V71      V      0.749740000000     0.248280000000     0.974100000000     1.41701    
V72      V      0.751600000000     0.248830000000     0.530800000000     1.41741    
V73      V      0.001220000000     0.498020000000     0.224850000000     1.37509    
V74      V      0.001110000000     0.998050000000     0.281580000000     1.34181    
V75      V      0.972420000000     0.747940000000     0.254420000000     1.41852    
V76      V      0.529150000000     0.748170000000     0.253020000000     1.40936    
V77      V      0.751010000000     0.969360000000     0.252750000000     1.37933    
V78      V      0.751310000000     0.526100000000     0.252760000000     1.42065    
V79      V      0.779810000000     0.498030000000     0.002850000000     1.37768    
V80      V      0.723070000000     0.498940000000     0.502510000000     1.41206    
V81      V      0.500670000000     0.721000000000     0.003810000000     1.38941    
V82      V      0.500840000000     0.777750000000     0.503770000000     1.40247    
V83      V      0.749740000000     0.748280000000     0.474100000000     1.40878    
V84      V      0.751600000000     0.748830000000     0.030800000000     1.39871    
V85      V      0.001220000000     0.498020000000     0.724850000000     1.3753     
V86      V      0.001110000000     0.998050000000     0.781580000000     1.34279    
V87      V      0.972420000000     0.747940000000     0.754420000000     1.41854    
V88      V      0.529150000000     0.748170000000     0.753020000000     1.40933    
V89      V      0.751010000000     0.969360000000     0.752750000000     1.3794     
V90      V      0.751310000000     0.526100000000     0.752760000000     1.42057    
V91      V      0.779810000000     0.498030000000     0.502850000000     1.40669    
V92      V      0.723070000000     0.498940000000     0.002510000000     1.3831     
V93      V      0.500670000000     0.721000000000     0.503810000000     1.42       
V94      V      0.500840000000     0.777750000000     0.003770000000     1.38959    
V95      V      0.749740000000     0.748280000000     0.974100000000     1.41703    
V96      V      0.751600000000     0.748830000000     0.530800000000     1.41746    


