data_structure

_audit_creation_method RASPA-1.0
_audit_creation_date 2023-5-19
_audit_author_name 'Poobodin Mano'

_cell_length_a    42.2714
_cell_length_b    42.2761
_cell_length_c    42.2577
_cell_angle_alpha 90
_cell_angle_beta  90
_cell_angle_gamma 90
_cell_volume      75517.5

_symmetry_cell_setting          triclinic
_symmetry_space_group_name_Hall 'P 1'
_symmetry_space_group_name_H-M  'P 1'
_symmetry_Int_Tables_number     1

_symmetry_equiv_pos_as_xyz 'x,y,z'

loop_
_atom_site_label
_atom_site_type_symbol
_atom_site_fract_x
_atom_site_fract_y
_atom_site_fract_z
_atom_site_charge
C1       C      0.497350000000     0.057880000000     0.248950000000     0.471714   
C2       C      0.496270000000     0.438200000000     0.248860000000     0.474868   
C3       C      0.436860000000     0.498170000000     0.249500000000     0.475578   
C4       C      0.056420000000     0.498650000000     0.248080000000     0.474864   
C5       C      0.496500000000     0.307750000000     0.247960000000     0.479563   
C6       C      0.498910000000     0.188180000000     0.248160000000     0.479897   
C7       C      0.999580000000     0.247860000000     0.187240000000     0.450837   
C8       C      0.995990000000     0.248010000000     0.307080000000     0.461713   
C9       C      0.306350000000     0.997870000000     0.249510000000     0.462509   
C10      C      0.186810000000     0.999410000000     0.246120000000     0.45977    
C11      C      0.248430000000     0.497190000000     0.187640000000     0.475595   
C12      C      0.245670000000     0.500100000000     0.307170000000     0.478748   
C13      C      0.246500000000     0.999010000000     0.437660000000     0.447755   
C14      C      0.250470000000     0.995940000000     0.057280000000     0.47527    
C15      C      0.247580000000     0.057390000000     0.998810000000     0.471844   
C16      C      0.249320000000     0.437650000000     0.996410000000     0.465453   
C17      C      0.001220000000     0.247920000000     0.056900000000     0.491198   
C18      C      0.994900000000     0.247700000000     0.437390000000     0.478015   
C19      C      0.057970000000     0.247880000000     0.494390000000     0.473099   
C20      C      0.438250000000     0.247850000000     0.500270000000     0.476426   
C21      C      0.188400000000     0.248880000000     0.994900000000     0.468953   
C22      C      0.307910000000     0.246340000000     0.000890000000     0.489845   
C23      C      0.246660000000     0.187700000000     0.498970000000     0.480275   
C24      C      0.249870000000     0.307290000000     0.496650000000     0.479134   
C25      C      0.389000000000     0.270450000000     0.486120000000     0.032385   
C26      C      0.390340000000     0.224630000000     0.018040000000     0.0229891  
C27      C      0.356080000000     0.268830000000     0.485260000000     0.0331602  
C28      C      0.357140000000     0.224440000000     0.019560000000     0.068186   
C29      C      0.107220000000     0.225170000000     0.478970000000     0.031723   
C30      C      0.106080000000     0.272650000000     0.508340000000     0.0204163  
C31      C      0.140260000000     0.226890000000     0.477610000000     0.0334106  
C32      C      0.139170000000     0.273200000000     0.509260000000     0.0697138  
C33      C      0.229220000000     0.388700000000     0.014620000000     0.0385146  
C34      C      0.271240000000     0.389540000000     0.477830000000     0.0208912  
C35      C      0.230870000000     0.355790000000     0.015750000000     0.0395803  
C36      C      0.271000000000     0.356350000000     0.476540000000     0.0685931  
C37      C      0.271470000000     0.106540000000     0.486370000000     0.0326865  
C38      C      0.222010000000     0.105480000000     0.512340000000     0.0215495  
C39      C      0.270170000000     0.139470000000     0.485210000000     0.0336972  
C40      C      0.221800000000     0.138670000000     0.513660000000     0.0674407  
C41      C      0.222570000000     0.485050000000     0.388730000000     0.031801   
C42      C      0.269110000000     0.015920000000     0.389340000000     0.0223902  
C43      C      0.223660000000     0.484190000000     0.355710000000     0.0326757  
C44      C      0.269000000000     0.017270000000     0.356210000000     0.0690216  
C45      C      0.233920000000     0.019050000000     0.138210000000     0.0408433  
C46      C      0.266270000000     0.473540000000     0.139870000000     0.0206029  
C47      C      0.233690000000     0.017710000000     0.105310000000     0.0444732  
C48      C      0.268320000000     0.473580000000     0.106670000000     0.0666172  
C49      C      0.019110000000     0.261550000000     0.356280000000     0.0411296  
C50      C      0.470230000000     0.234510000000     0.355100000000     0.021682   
C51      C      0.017700000000     0.262680000000     0.389210000000     0.0436564  
C52      C      0.470070000000     0.233030000000     0.388310000000     0.0675302  
C53      C      0.478720000000     0.231090000000     0.137970000000     0.0316256  
C54      C      0.523520000000     0.264450000000     0.139250000000     0.0203926  
C55      C      0.480470000000     0.229990000000     0.105040000000     0.0339378  
C56      C      0.523710000000     0.265730000000     0.106040000000     0.068848   
C57      C      0.137720000000     0.476620000000     0.231240000000     0.0317793  
C58      C      0.138600000000     0.023520000000     0.261570000000     0.0345943  
C59      C      0.104740000000     0.477540000000     0.230770000000     0.0325847  
C60      C      0.105460000000     0.023260000000     0.263310000000     0.0626958  
C61      C      0.387800000000     0.013700000000     0.227180000000     0.0409121  
C62      C      0.388610000000     0.482160000000     0.273260000000     0.0204694  
C63      C      0.354860000000     0.014600000000     0.228370000000     0.0423342  
C64      C      0.355420000000     0.480860000000     0.273210000000     0.067009   
C65      C      0.479990000000     0.389310000000     0.226380000000     0.0311684  
C66      C      0.011510000000     0.389720000000     0.272500000000     0.0291165  
C67      C      0.478810000000     0.356310000000     0.227480000000     0.0326402  
C68      C      0.012460000000     0.356580000000     0.272400000000     0.0754806  
C69      C      0.014580000000     0.106510000000     0.226700000000     0.0405141  
C70      C      0.482820000000     0.106500000000     0.272660000000     0.0207974  
C71      C      0.016330000000     0.139480000000     0.227900000000     0.0425581  
C72      C      0.482360000000     0.139640000000     0.272590000000     0.0685891  
C73      C      0.497350000000     0.057880000000     0.748950000000     0.471719   
C74      C      0.496270000000     0.438200000000     0.748860000000     0.474882   
C75      C      0.436860000000     0.498170000000     0.749510000000     0.475589   
C76      C      0.056420000000     0.498650000000     0.748070000000     0.474878   
C77      C      0.496500000000     0.307750000000     0.747960000000     0.479549   
C78      C      0.498910000000     0.188180000000     0.748160000000     0.479877   
C79      C      0.999580000000     0.247860000000     0.687240000000     0.450755   
C80      C      0.995990000000     0.248010000000     0.807080000000     0.461687   
C81      C      0.306350000000     0.997870000000     0.749510000000     0.462467   
C82      C      0.186810000000     0.999410000000     0.746120000000     0.459716   
C83      C      0.248430000000     0.497190000000     0.687640000000     0.475562   
C84      C      0.245670000000     0.500100000000     0.807170000000     0.478578   
C85      C      0.246500000000     0.999010000000     0.937660000000     0.446627   
C86      C      0.250470000000     0.995940000000     0.557280000000     0.477149   
C87      C      0.247580000000     0.057390000000     0.498810000000     0.473801   
C88      C      0.249320000000     0.437650000000     0.496410000000     0.477678   
C89      C      0.001220000000     0.247920000000     0.556900000000     0.493127   
C90      C      0.994900000000     0.247700000000     0.937400000000     0.476985   
C91      C      0.057970000000     0.247880000000     0.994390000000     0.471337   
C92      C      0.438250000000     0.247850000000     0.000260000000     0.48545    
C93      C      0.188400000000     0.248880000000     0.494900000000     0.479633   
C94      C      0.307910000000     0.246340000000     0.500890000000     0.479144   
C95      C      0.246660000000     0.187700000000     0.998970000000     0.469758   
C96      C      0.249870000000     0.307290000000     0.996650000000     0.468523   
C97      C      0.389000000000     0.270450000000     0.986120000000     0.0262481  
C98      C      0.390340000000     0.224630000000     0.518040000000     0.0210055  
C99      C      0.356080000000     0.268830000000     0.985270000000     0.02706    
C100     C      0.357140000000     0.224440000000     0.519560000000     0.0672797  
C101     C      0.107220000000     0.225170000000     0.978970000000     0.0304131  
C102     C      0.106080000000     0.272650000000     0.008340000000     0.0279178  
C103     C      0.140260000000     0.226890000000     0.977610000000     0.0314938  
C104     C      0.139170000000     0.273200000000     0.009260000000     0.0743256  
C105     C      0.229220000000     0.388700000000     0.514620000000     0.0324983  
C106     C      0.271240000000     0.389540000000     0.977830000000     0.0191107  
C107     C      0.230870000000     0.355790000000     0.515750000000     0.0331941  
C108     C      0.271000000000     0.356350000000     0.976540000000     0.0675338  
C109     C      0.271470000000     0.106540000000     0.986370000000     0.0314037  
C110     C      0.222010000000     0.105480000000     0.012340000000     0.0291266  
C111     C      0.270170000000     0.139470000000     0.985210000000     0.0317566  
C112     C      0.221800000000     0.138670000000     0.013660000000     0.0718729  
C113     C      0.222570000000     0.485050000000     0.888730000000     0.0315805  
C114     C      0.269110000000     0.015920000000     0.889340000000     0.0222171  
C115     C      0.223660000000     0.484190000000     0.855710000000     0.0325995  
C116     C      0.269000000000     0.017270000000     0.856210000000     0.0690421  
C117     C      0.233920000000     0.019050000000     0.638210000000     0.0405667  
C118     C      0.266270000000     0.473540000000     0.639870000000     0.0201556  
C119     C      0.233690000000     0.017710000000     0.605310000000     0.0443105  
C120     C      0.268320000000     0.473580000000     0.606670000000     0.0670889  
C121     C      0.019110000000     0.261550000000     0.856280000000     0.0410351  
C122     C      0.470230000000     0.234510000000     0.855100000000     0.0214761  
C123     C      0.017700000000     0.262680000000     0.889210000000     0.0434999  
C124     C      0.470070000000     0.233030000000     0.888310000000     0.0678001  
C125     C      0.478720000000     0.231090000000     0.637970000000     0.031355   
C126     C      0.523520000000     0.264450000000     0.639260000000     0.0200627  
C127     C      0.480470000000     0.229990000000     0.605040000000     0.0337288  
C128     C      0.523710000000     0.265730000000     0.606040000000     0.0690506  
C129     C      0.137720000000     0.476620000000     0.731240000000     0.0316936  
C130     C      0.138600000000     0.023520000000     0.761570000000     0.0345205  
C131     C      0.104740000000     0.477540000000     0.730770000000     0.032472   
C132     C      0.105460000000     0.023260000000     0.763310000000     0.0627003  
C133     C      0.387800000000     0.013700000000     0.727180000000     0.0408555  
C134     C      0.388610000000     0.482160000000     0.773260000000     0.0203855  
C135     C      0.354860000000     0.014600000000     0.728370000000     0.0422766  
C136     C      0.355420000000     0.480860000000     0.773210000000     0.06703    
C137     C      0.479990000000     0.389310000000     0.726380000000     0.0310859  
C138     C      0.011510000000     0.389720000000     0.772500000000     0.0290478  
C139     C      0.478810000000     0.356310000000     0.727480000000     0.0325691  
C140     C      0.012460000000     0.356580000000     0.772400000000     0.0755311  
C141     C      0.014580000000     0.106510000000     0.726700000000     0.0404575  
C142     C      0.482820000000     0.106500000000     0.772670000000     0.0206329  
C143     C      0.016330000000     0.139480000000     0.727900000000     0.042493   
C144     C      0.482360000000     0.139640000000     0.772590000000     0.0686471  
C145     C      0.497350000000     0.557880000000     0.248950000000     0.47534    
C146     C      0.496270000000     0.938200000000     0.248860000000     0.472638   
C147     C      0.436860000000     0.998170000000     0.249500000000     0.456544   
C148     C      0.056420000000     0.998650000000     0.248080000000     0.444792   
C149     C      0.496500000000     0.807750000000     0.247960000000     0.479487   
C150     C      0.498910000000     0.688180000000     0.248160000000     0.479926   
C151     C      0.999580000000     0.747860000000     0.187240000000     0.450776   
C152     C      0.995990000000     0.748010000000     0.307080000000     0.461713   
C153     C      0.306350000000     0.497870000000     0.249510000000     0.478563   
C154     C      0.186810000000     0.499410000000     0.246120000000     0.475315   
C155     C      0.248430000000     0.997190000000     0.187640000000     0.459935   
C156     C      0.245670000000     0.000100000000     0.307170000000     0.494908   
C157     C      0.246500000000     0.499010000000     0.437660000000     0.477002   
C158     C      0.250470000000     0.495940000000     0.057280000000     0.478143   
C159     C      0.247580000000     0.557390000000     0.998810000000     0.474502   
C160     C      0.249320000000     0.937650000000     0.996410000000     0.463715   
C161     C      0.001220000000     0.747920000000     0.056900000000     0.491249   
C162     C      0.994900000000     0.747700000000     0.437390000000     0.478061   
C163     C      0.057970000000     0.747870000000     0.494390000000     0.47311    
C164     C      0.438250000000     0.747850000000     0.500270000000     0.476462   
C165     C      0.188400000000     0.748870000000     0.994900000000     0.468948   
C166     C      0.307910000000     0.746340000000     0.000890000000     0.489926   
C167     C      0.246660000000     0.687700000000     0.498970000000     0.48029    
C168     C      0.249870000000     0.807290000000     0.496650000000     0.478977   
C169     C      0.389000000000     0.770450000000     0.486120000000     0.0322866  
C170     C      0.390340000000     0.724630000000     0.018040000000     0.0228339  
C171     C      0.356080000000     0.768830000000     0.485260000000     0.0331536  
C172     C      0.357140000000     0.724440000000     0.019560000000     0.0682693  
C173     C      0.107220000000     0.725170000000     0.478970000000     0.0315928  
C174     C      0.106080000000     0.772650000000     0.508340000000     0.0203141  
C175     C      0.140260000000     0.726890000000     0.477610000000     0.033305   
C176     C      0.139170000000     0.773200000000     0.509260000000     0.0697616  
C177     C      0.229220000000     0.888700000000     0.014620000000     0.0383256  
C178     C      0.271240000000     0.889540000000     0.477830000000     0.020572   
C179     C      0.230870000000     0.855790000000     0.015750000000     0.0395282  
C180     C      0.271000000000     0.856350000000     0.476540000000     0.0686325  
C181     C      0.271470000000     0.606540000000     0.486370000000     0.0323363  
C182     C      0.222010000000     0.605480000000     0.512340000000     0.0210353  
C183     C      0.270170000000     0.639470000000     0.485210000000     0.0333142  
C184     C      0.221800000000     0.638670000000     0.513660000000     0.067328   
C185     C      0.222570000000     0.985050000000     0.388730000000     0.0206144  
C186     C      0.269110000000     0.515920000000     0.389340000000     0.0211662  
C187     C      0.223660000000     0.984190000000     0.355710000000     0.0241958  
C188     C      0.269000000000     0.517270000000     0.356210000000     0.0669185  
C189     C      0.233920000000     0.519050000000     0.138210000000     0.0317448  
C190     C      0.266270000000     0.973540000000     0.139870000000     0.0179482  
C191     C      0.233690000000     0.517720000000     0.105310000000     0.0336124  
C192     C      0.268320000000     0.973580000000     0.106670000000     0.0654772  
C193     C      0.019110000000     0.761550000000     0.356280000000     0.0410752  
C194     C      0.470230000000     0.734510000000     0.355100000000     0.0215399  
C195     C      0.017700000000     0.762690000000     0.389210000000     0.0435066  
C196     C      0.470070000000     0.733030000000     0.388310000000     0.0675742  
C197     C      0.478720000000     0.731090000000     0.137970000000     0.0314392  
C198     C      0.523520000000     0.764450000000     0.139250000000     0.0202966  
C199     C      0.480470000000     0.729990000000     0.105040000000     0.0338104  
C200     C      0.523710000000     0.765730000000     0.106040000000     0.0688444  
C201     C      0.137720000000     0.976620000000     0.231240000000     0.0340375  
C202     C      0.138600000000     0.523520000000     0.261570000000     0.0207464  
C203     C      0.104740000000     0.977540000000     0.230770000000     0.0179096  
C204     C      0.105460000000     0.523260000000     0.263310000000     0.0658968  
C205     C      0.387800000000     0.513700000000     0.227180000000     0.0315951  
C206     C      0.388610000000     0.982160000000     0.273260000000     0.0174497  
C207     C      0.354860000000     0.514600000000     0.228370000000     0.0325595  
C208     C      0.355420000000     0.980860000000     0.273210000000     0.0658223  
C209     C      0.479990000000     0.889310000000     0.226380000000     0.0308717  
C210     C      0.011510000000     0.889720000000     0.272500000000     0.028783   
C211     C      0.478810000000     0.856310000000     0.227480000000     0.0325492  
C212     C      0.012460000000     0.856580000000     0.272400000000     0.0755245  
C213     C      0.014580000000     0.606510000000     0.226700000000     0.0404286  
C214     C      0.482820000000     0.606500000000     0.272660000000     0.0205873  
C215     C      0.016330000000     0.639480000000     0.227900000000     0.0421836  
C216     C      0.482360000000     0.639640000000     0.272590000000     0.0684298  
C217     C      0.497350000000     0.557880000000     0.748950000000     0.475352   
C218     C      0.496270000000     0.938200000000     0.748860000000     0.472647   
C219     C      0.436860000000     0.998170000000     0.749510000000     0.456521   
C220     C      0.056420000000     0.998650000000     0.748070000000     0.444758   
C221     C      0.496500000000     0.807750000000     0.747960000000     0.479474   
C222     C      0.498910000000     0.688180000000     0.748160000000     0.479905   
C223     C      0.999580000000     0.747860000000     0.687240000000     0.450693   
C224     C      0.995990000000     0.748010000000     0.807080000000     0.461687   
C225     C      0.306350000000     0.497870000000     0.749510000000     0.478553   
C226     C      0.186810000000     0.499410000000     0.746120000000     0.475292   
C227     C      0.248430000000     0.997190000000     0.687640000000     0.45986    
C228     C      0.245670000000     0.000100000000     0.807170000000     0.494766   
C229     C      0.246500000000     0.499010000000     0.937660000000     0.475874   
C230     C      0.250470000000     0.495940000000     0.557280000000     0.480025   
C231     C      0.247580000000     0.557390000000     0.498810000000     0.476462   
C232     C      0.249320000000     0.937650000000     0.496410000000     0.475947   
C233     C      0.001220000000     0.747920000000     0.556900000000     0.493184   
C234     C      0.994900000000     0.747700000000     0.937400000000     0.477027   
C235     C      0.057970000000     0.747870000000     0.994390000000     0.471344   
C236     C      0.438250000000     0.747850000000     0.000260000000     0.485514   
C237     C      0.188400000000     0.748870000000     0.494900000000     0.479656   
C238     C      0.307910000000     0.746340000000     0.500890000000     0.479186   
C239     C      0.246660000000     0.687700000000     0.998970000000     0.469736   
C240     C      0.249870000000     0.807290000000     0.996650000000     0.468343   
C241     C      0.389000000000     0.770450000000     0.986120000000     0.0261331  
C242     C      0.390340000000     0.724630000000     0.518040000000     0.0208416  
C243     C      0.356080000000     0.768830000000     0.985270000000     0.0270333  
C244     C      0.357140000000     0.724440000000     0.519560000000     0.0673605  
C245     C      0.107220000000     0.725170000000     0.978970000000     0.0302795  
C246     C      0.106080000000     0.772650000000     0.008340000000     0.0278416  
C247     C      0.140260000000     0.726890000000     0.977610000000     0.0313833  
C248     C      0.139170000000     0.773200000000     0.009260000000     0.0743892  
C249     C      0.229220000000     0.888700000000     0.514620000000     0.0322998  
C250     C      0.271240000000     0.889540000000     0.977830000000     0.0187896  
C251     C      0.230870000000     0.855790000000     0.515750000000     0.0331234  
C252     C      0.271000000000     0.856350000000     0.976540000000     0.0675742  
C253     C      0.271470000000     0.606540000000     0.986370000000     0.0310498  
C254     C      0.222010000000     0.605480000000     0.012340000000     0.0286619  
C255     C      0.270170000000     0.639470000000     0.985210000000     0.031366   
C256     C      0.221800000000     0.638670000000     0.013660000000     0.0717798  
C257     C      0.222570000000     0.985050000000     0.888730000000     0.0203944  
C258     C      0.269110000000     0.515920000000     0.889340000000     0.0209883  
C259     C      0.223660000000     0.984190000000     0.855710000000     0.0241056  
C260     C      0.269000000000     0.517270000000     0.856210000000     0.0669412  
C261     C      0.233920000000     0.519050000000     0.638210000000     0.0314399  
C262     C      0.266270000000     0.973540000000     0.639870000000     0.0174915  
C263     C      0.233690000000     0.517720000000     0.605310000000     0.0333943  
C264     C      0.268320000000     0.973580000000     0.606670000000     0.0659472  
C265     C      0.019110000000     0.761550000000     0.856280000000     0.0409806  
C266     C      0.470230000000     0.734510000000     0.855100000000     0.0213334  
C267     C      0.017700000000     0.762690000000     0.889210000000     0.0433499  
C268     C      0.470070000000     0.733030000000     0.888310000000     0.0678452  
C269     C      0.478720000000     0.731090000000     0.637970000000     0.0311673  
C270     C      0.523520000000     0.764450000000     0.639260000000     0.0199652  
C271     C      0.480470000000     0.729990000000     0.605040000000     0.0336     
C272     C      0.523710000000     0.765730000000     0.606040000000     0.0690475  
C273     C      0.137720000000     0.976620000000     0.731240000000     0.0339566  
C274     C      0.138600000000     0.523520000000     0.761570000000     0.0206423  
C275     C      0.104740000000     0.977540000000     0.730770000000     0.0177671  
C276     C      0.105460000000     0.523260000000     0.763310000000     0.0659076  
C277     C      0.387800000000     0.513700000000     0.727180000000     0.031517   
C278     C      0.388610000000     0.982160000000     0.773260000000     0.0173622  
C279     C      0.354860000000     0.514600000000     0.728370000000     0.0324794  
C280     C      0.355420000000     0.980860000000     0.773210000000     0.0658403  
C281     C      0.479990000000     0.889310000000     0.726380000000     0.0307885  
C282     C      0.011510000000     0.889720000000     0.772500000000     0.0287139  
C283     C      0.478810000000     0.856310000000     0.727480000000     0.0324779  
C284     C      0.012460000000     0.856580000000     0.772400000000     0.075575   
C285     C      0.014580000000     0.606510000000     0.726700000000     0.0403709  
C286     C      0.482820000000     0.606500000000     0.772670000000     0.0204225  
C287     C      0.016330000000     0.639480000000     0.727900000000     0.0421173  
C288     C      0.482360000000     0.639640000000     0.772590000000     0.0684873  
C289     C      0.997350000000     0.057880000000     0.248950000000     0.45369    
C290     C      0.996280000000     0.438200000000     0.248860000000     0.456857   
C291     C      0.936860000000     0.498170000000     0.249500000000     0.473545   
C292     C      0.556420000000     0.498650000000     0.248080000000     0.478395   
C293     C      0.996500000000     0.307750000000     0.247960000000     0.464199   
C294     C      0.998910000000     0.188180000000     0.248160000000     0.464872   
C295     C      0.499570000000     0.247860000000     0.187240000000     0.47618    
C296     C      0.495990000000     0.248010000000     0.307080000000     0.47678    
C297     C      0.806350000000     0.997870000000     0.249510000000     0.462523   
C298     C      0.686810000000     0.999410000000     0.246120000000     0.459645   
C299     C      0.748430000000     0.497190000000     0.187640000000     0.475553   
C300     C      0.745670000000     0.500100000000     0.307170000000     0.478745   
C301     C      0.746500000000     0.999010000000     0.437660000000     0.447731   
C302     C      0.750470000000     0.995940000000     0.057280000000     0.4753     
C303     C      0.747580000000     0.057390000000     0.998810000000     0.471853   
C304     C      0.749320000000     0.437650000000     0.996410000000     0.465142   
C305     C      0.501220000000     0.247920000000     0.056900000000     0.478382   
C306     C      0.494900000000     0.247700000000     0.437390000000     0.480491   
C307     C      0.557970000000     0.247880000000     0.494390000000     0.475798   
C308     C      0.938250000000     0.247850000000     0.500270000000     0.474736   
C309     C      0.688400000000     0.248880000000     0.994900000000     0.46891    
C310     C      0.807910000000     0.246340000000     0.000890000000     0.489874   
C311     C      0.746660000000     0.187700000000     0.498970000000     0.480294   
C312     C      0.749870000000     0.307290000000     0.496650000000     0.479137   
C313     C      0.889000000000     0.270450000000     0.486120000000     0.0321646  
C314     C      0.890350000000     0.224630000000     0.018040000000     0.0226614  
C315     C      0.856080000000     0.268830000000     0.485260000000     0.0330625  
C316     C      0.857140000000     0.224440000000     0.019560000000     0.0682284  
C317     C      0.607220000000     0.225170000000     0.478970000000     0.0314742  
C318     C      0.606080000000     0.272650000000     0.508340000000     0.020172   
C319     C      0.640260000000     0.226890000000     0.477610000000     0.0330372  
C320     C      0.639170000000     0.273200000000     0.509260000000     0.0696319  
C321     C      0.729220000000     0.388700000000     0.014620000000     0.0384104  
C322     C      0.771240000000     0.389540000000     0.477830000000     0.020752   
C323     C      0.730870000000     0.355790000000     0.015750000000     0.0394946  
C324     C      0.771000000000     0.356350000000     0.476540000000     0.0686268  
C325     C      0.771470000000     0.106540000000     0.486370000000     0.0326102  
C326     C      0.722010000000     0.105480000000     0.512340000000     0.0213682  
C327     C      0.770170000000     0.139470000000     0.485210000000     0.0336333  
C328     C      0.721800000000     0.138670000000     0.513660000000     0.0675495  
C329     C      0.722570000000     0.485050000000     0.388730000000     0.0316648  
C330     C      0.769110000000     0.015920000000     0.389340000000     0.022285   
C331     C      0.723660000000     0.484190000000     0.355710000000     0.0325627  
C332     C      0.769000000000     0.017270000000     0.356210000000     0.0690401  
C333     C      0.733920000000     0.019050000000     0.138210000000     0.0407331  
C334     C      0.766270000000     0.473540000000     0.139870000000     0.0204609  
C335     C      0.733690000000     0.017710000000     0.105310000000     0.0443485  
C336     C      0.768320000000     0.473580000000     0.106670000000     0.0666451  
C337     C      0.519110000000     0.261550000000     0.356280000000     0.0326079  
C338     C      0.970220000000     0.234510000000     0.355100000000     0.0192344  
C339     C      0.517710000000     0.262680000000     0.389210000000     0.0333804  
C340     C      0.970080000000     0.233030000000     0.388310000000     0.0665916  
C341     C      0.978720000000     0.231090000000     0.137970000000     0.0214453  
C342     C      0.023520000000     0.264450000000     0.139250000000     0.0213851  
C343     C      0.980470000000     0.229990000000     0.105040000000     0.0252207  
C344     C      0.023710000000     0.265730000000     0.106040000000     0.07141    
C345     C      0.637720000000     0.476620000000     0.231240000000     0.0313076  
C346     C      0.638600000000     0.023520000000     0.261570000000     0.0339522  
C347     C      0.604740000000     0.477540000000     0.230770000000     0.0324524  
C348     C      0.605460000000     0.023260000000     0.263310000000     0.0635045  
C349     C      0.887800000000     0.013700000000     0.227180000000     0.04064    
C350     C      0.888610000000     0.482160000000     0.273260000000     0.0201691  
C351     C      0.854860000000     0.014600000000     0.228370000000     0.0422594  
C352     C      0.855420000000     0.480860000000     0.273210000000     0.0670677  
C353     C      0.979990000000     0.389310000000     0.226380000000     0.0287658  
C354     C      0.511510000000     0.389720000000     0.272500000000     0.0196275  
C355     C      0.978810000000     0.356310000000     0.227480000000     0.0302658  
C356     C      0.512460000000     0.356580000000     0.272400000000     0.0684594  
C357     C      0.514580000000     0.106510000000     0.226700000000     0.0317849  
C358     C      0.982820000000     0.106500000000     0.272660000000     0.0181528  
C359     C      0.516330000000     0.139480000000     0.227900000000     0.0332895  
C360     C      0.982360000000     0.139640000000     0.272590000000     0.0671792  
C361     C      0.997350000000     0.057880000000     0.748950000000     0.453669   
C362     C      0.996280000000     0.438200000000     0.748860000000     0.456855   
C363     C      0.936860000000     0.498170000000     0.749510000000     0.473554   
C364     C      0.556420000000     0.498650000000     0.748070000000     0.478413   
C365     C      0.996500000000     0.307750000000     0.747960000000     0.46417    
C366     C      0.998910000000     0.188180000000     0.748160000000     0.464836   
C367     C      0.499570000000     0.247860000000     0.687240000000     0.476149   
C368     C      0.495990000000     0.248010000000     0.807080000000     0.476761   
C369     C      0.806350000000     0.997870000000     0.749510000000     0.462481   
C370     C      0.686810000000     0.999410000000     0.746120000000     0.459591   
C371     C      0.748430000000     0.497190000000     0.687640000000     0.47552    
C372     C      0.745670000000     0.500100000000     0.807170000000     0.478575   
C373     C      0.746500000000     0.999010000000     0.937660000000     0.446601   
C374     C      0.750470000000     0.995940000000     0.557280000000     0.477182   
C375     C      0.747580000000     0.057390000000     0.498810000000     0.473812   
C376     C      0.749320000000     0.437650000000     0.496410000000     0.477388   
C377     C      0.501220000000     0.247920000000     0.556900000000     0.480258   
C378     C      0.494900000000     0.247700000000     0.937400000000     0.479453   
C379     C      0.557970000000     0.247880000000     0.994390000000     0.474025   
C380     C      0.938250000000     0.247850000000     0.000260000000     0.483765   
C381     C      0.688400000000     0.248880000000     0.494900000000     0.479612   
C382     C      0.807910000000     0.246340000000     0.500890000000     0.479156   
C383     C      0.746660000000     0.187700000000     0.998970000000     0.469762   
C384     C      0.749870000000     0.307290000000     0.996650000000     0.468511   
C385     C      0.889000000000     0.270450000000     0.986120000000     0.0260319  
C386     C      0.890350000000     0.224630000000     0.518040000000     0.0206759  
C387     C      0.856080000000     0.268830000000     0.985270000000     0.0269591  
C388     C      0.857140000000     0.224440000000     0.519560000000     0.0673203  
C389     C      0.607220000000     0.225170000000     0.978970000000     0.0301616  
C390     C      0.606080000000     0.272650000000     0.008340000000     0.0277087  
C391     C      0.640260000000     0.226890000000     0.977610000000     0.0311156  
C392     C      0.639170000000     0.273200000000     0.009260000000     0.0742576  
C393     C      0.729220000000     0.388700000000     0.514620000000     0.0323816  
C394     C      0.771240000000     0.389540000000     0.977830000000     0.0189702  
C395     C      0.730870000000     0.355790000000     0.515750000000     0.0330954  
C396     C      0.771000000000     0.356350000000     0.976540000000     0.0675662  
C397     C      0.771470000000     0.106540000000     0.986370000000     0.0313271  
C398     C      0.722010000000     0.105480000000     0.012340000000     0.0289616  
C399     C      0.770170000000     0.139470000000     0.985210000000     0.031691   
C400     C      0.721800000000     0.138670000000     0.013660000000     0.0719893  
C401     C      0.722570000000     0.485050000000     0.888730000000     0.0314439  
C402     C      0.769110000000     0.015920000000     0.889340000000     0.0221118  
C403     C      0.723660000000     0.484190000000     0.855710000000     0.0324864  
C404     C      0.769000000000     0.017270000000     0.856210000000     0.0690605  
C405     C      0.733920000000     0.019050000000     0.638210000000     0.0404555  
C406     C      0.766270000000     0.473540000000     0.639870000000     0.0200126  
C407     C      0.733690000000     0.017710000000     0.605310000000     0.044185   
C408     C      0.768320000000     0.473580000000     0.606670000000     0.0671175  
C409     C      0.519110000000     0.261550000000     0.856280000000     0.0325091  
C410     C      0.970220000000     0.234510000000     0.855100000000     0.01903    
C411     C      0.517710000000     0.262680000000     0.889210000000     0.0332304  
C412     C      0.970080000000     0.233030000000     0.888310000000     0.0668617  
C413     C      0.978720000000     0.231090000000     0.637970000000     0.0211538  
C414     C      0.023520000000     0.264450000000     0.639260000000     0.0210598  
C415     C      0.980470000000     0.229990000000     0.605040000000     0.02498    
C416     C      0.023710000000     0.265730000000     0.606040000000     0.0716204  
C417     C      0.637720000000     0.476620000000     0.731240000000     0.031221   
C418     C      0.638600000000     0.023520000000     0.761570000000     0.0338775  
C419     C      0.604740000000     0.477540000000     0.730770000000     0.0323389  
C420     C      0.605460000000     0.023260000000     0.763310000000     0.0635096  
C421     C      0.887800000000     0.013700000000     0.727180000000     0.0405828  
C422     C      0.888610000000     0.482160000000     0.773260000000     0.0200851  
C423     C      0.854860000000     0.014600000000     0.728370000000     0.0422016  
C424     C      0.855420000000     0.480860000000     0.773210000000     0.0670886  
C425     C      0.979990000000     0.389310000000     0.726380000000     0.0286811  
C426     C      0.511510000000     0.389720000000     0.772500000000     0.0195463  
C427     C      0.978810000000     0.356310000000     0.727480000000     0.0301923  
C428     C      0.512460000000     0.356580000000     0.772400000000     0.0685002  
C429     C      0.514580000000     0.106510000000     0.726700000000     0.0317173  
C430     C      0.982820000000     0.106500000000     0.772670000000     0.0179863  
C431     C      0.516330000000     0.139480000000     0.727900000000     0.0332111  
C432     C      0.982360000000     0.139640000000     0.772590000000     0.0672359  
C433     C      0.997350000000     0.557880000000     0.248950000000     0.457234   
C434     C      0.996280000000     0.938200000000     0.248860000000     0.454663   
C435     C      0.936860000000     0.998170000000     0.249500000000     0.454549   
C436     C      0.556420000000     0.998650000000     0.248080000000     0.4482     
C437     C      0.996500000000     0.807750000000     0.247960000000     0.464124   
C438     C      0.998910000000     0.688180000000     0.248160000000     0.464875   
C439     C      0.499570000000     0.747860000000     0.187240000000     0.476142   
C440     C      0.495990000000     0.748010000000     0.307080000000     0.476793   
C441     C      0.806350000000     0.497870000000     0.249510000000     0.478581   
C442     C      0.686810000000     0.499410000000     0.246120000000     0.475213   
C443     C      0.748430000000     0.997190000000     0.187640000000     0.45988    
C444     C      0.745670000000     0.000100000000     0.307170000000     0.494929   
C445     C      0.746500000000     0.499010000000     0.437660000000     0.477004   
C446     C      0.750470000000     0.495940000000     0.057280000000     0.478174   
C447     C      0.747580000000     0.557390000000     0.998810000000     0.474514   
C448     C      0.749320000000     0.937650000000     0.996410000000     0.463404   
C449     C      0.501220000000     0.747920000000     0.056900000000     0.478421   
C450     C      0.494900000000     0.747700000000     0.437390000000     0.480538   
C451     C      0.557970000000     0.747870000000     0.494390000000     0.475812   
C452     C      0.938250000000     0.747850000000     0.500270000000     0.474771   
C453     C      0.688400000000     0.748870000000     0.994900000000     0.468905   
C454     C      0.807910000000     0.746340000000     0.000890000000     0.489956   
C455     C      0.746660000000     0.687700000000     0.498970000000     0.48031    
C456     C      0.749870000000     0.807290000000     0.496650000000     0.47898    
C457     C      0.889000000000     0.770450000000     0.486120000000     0.0320664  
C458     C      0.890350000000     0.724630000000     0.018040000000     0.0225059  
C459     C      0.856080000000     0.768830000000     0.485260000000     0.0330562  
C460     C      0.857140000000     0.724440000000     0.019560000000     0.0683119  
C461     C      0.607220000000     0.725170000000     0.478970000000     0.0313431  
C462     C      0.606080000000     0.772650000000     0.508340000000     0.0200694  
C463     C      0.640260000000     0.726890000000     0.477610000000     0.0329305  
C464     C      0.639170000000     0.773200000000     0.509260000000     0.0696795  
C465     C      0.729220000000     0.888700000000     0.014620000000     0.0382213  
C466     C      0.771240000000     0.889540000000     0.477830000000     0.020433   
C467     C      0.730870000000     0.855790000000     0.015750000000     0.0394424  
C468     C      0.771000000000     0.856350000000     0.476540000000     0.0686661  
C469     C      0.771470000000     0.606540000000     0.486370000000     0.0322594  
C470     C      0.722010000000     0.605480000000     0.512340000000     0.0208525  
C471     C      0.770170000000     0.639470000000     0.485210000000     0.0332499  
C472     C      0.721800000000     0.638670000000     0.513660000000     0.0674371  
C473     C      0.722570000000     0.985050000000     0.388730000000     0.0204664  
C474     C      0.769110000000     0.515920000000     0.389340000000     0.0210586  
C475     C      0.723660000000     0.984190000000     0.355710000000     0.024074   
C476     C      0.769000000000     0.517270000000     0.356210000000     0.0669332  
C477     C      0.733920000000     0.519050000000     0.138210000000     0.0316219  
C478     C      0.766270000000     0.973540000000     0.139870000000     0.0178054  
C479     C      0.733690000000     0.517720000000     0.105310000000     0.0334731  
C480     C      0.768320000000     0.973580000000     0.106670000000     0.0655045  
C481     C      0.519110000000     0.761550000000     0.356280000000     0.0325397  
C482     C      0.970220000000     0.734510000000     0.355100000000     0.0190914  
C483     C      0.517710000000     0.762690000000     0.389210000000     0.0332189  
C484     C      0.970080000000     0.733030000000     0.388310000000     0.0666348  
C485     C      0.978720000000     0.731090000000     0.137970000000     0.0212527  
C486     C      0.023520000000     0.764450000000     0.139250000000     0.0212886  
C487     C      0.980470000000     0.729990000000     0.105040000000     0.0250828  
C488     C      0.023710000000     0.765730000000     0.106040000000     0.071411   
C489     C      0.637720000000     0.976620000000     0.231240000000     0.0335783  
C490     C      0.638600000000     0.523520000000     0.261570000000     0.0200645  
C491     C      0.604740000000     0.977540000000     0.230770000000     0.0177286  
C492     C      0.605460000000     0.523260000000     0.263310000000     0.0667173  
C493     C      0.887800000000     0.513700000000     0.227180000000     0.0313291  
C494     C      0.888610000000     0.982160000000     0.273260000000     0.0171532  
C495     C      0.854860000000     0.514600000000     0.228370000000     0.0324818  
C496     C      0.855420000000     0.980860000000     0.273210000000     0.065882   
C497     C      0.979990000000     0.889310000000     0.226380000000     0.0284729  
C498     C      0.511510000000     0.889720000000     0.272500000000     0.0192985  
C499     C      0.978810000000     0.856310000000     0.227480000000     0.0301762  
C500     C      0.512460000000     0.856580000000     0.272400000000     0.0685008  
C501     C      0.514580000000     0.606510000000     0.226700000000     0.0316649  
C502     C      0.982820000000     0.606500000000     0.272660000000     0.0179364  
C503     C      0.516330000000     0.639480000000     0.227900000000     0.0328921  
C504     C      0.982360000000     0.639640000000     0.272590000000     0.0670172  
C505     C      0.997350000000     0.557880000000     0.748950000000     0.457221   
C506     C      0.996280000000     0.938200000000     0.748860000000     0.454657   
C507     C      0.936860000000     0.998170000000     0.749510000000     0.454524   
C508     C      0.556420000000     0.998650000000     0.748070000000     0.44817    
C509     C      0.996500000000     0.807750000000     0.747960000000     0.464095   
C510     C      0.998910000000     0.688180000000     0.748160000000     0.464838   
C511     C      0.499570000000     0.747860000000     0.687240000000     0.476111   
C512     C      0.495990000000     0.748010000000     0.807080000000     0.476773   
C513     C      0.806350000000     0.497870000000     0.749510000000     0.47857    
C514     C      0.686810000000     0.499410000000     0.746120000000     0.475189   
C515     C      0.748430000000     0.997190000000     0.687640000000     0.459806   
C516     C      0.745670000000     0.000100000000     0.807170000000     0.494788   
C517     C      0.746500000000     0.499010000000     0.937660000000     0.475874   
C518     C      0.750470000000     0.495940000000     0.557280000000     0.48006    
C519     C      0.747580000000     0.557390000000     0.498810000000     0.476476   
C520     C      0.749320000000     0.937650000000     0.496410000000     0.475657   
C521     C      0.501220000000     0.747920000000     0.556900000000     0.480303   
C522     C      0.494900000000     0.747700000000     0.937400000000     0.479497   
C523     C      0.557970000000     0.747870000000     0.994390000000     0.474035   
C524     C      0.938250000000     0.747850000000     0.000260000000     0.483827   
C525     C      0.688400000000     0.748870000000     0.494900000000     0.479635   
C526     C      0.807910000000     0.746340000000     0.500890000000     0.479199   
C527     C      0.746660000000     0.687700000000     0.998970000000     0.46974    
C528     C      0.749870000000     0.807290000000     0.996650000000     0.468331   
C529     C      0.889000000000     0.770450000000     0.986120000000     0.025917   
C530     C      0.890350000000     0.724630000000     0.518040000000     0.0205117  
C531     C      0.856080000000     0.768830000000     0.985270000000     0.0269327  
C532     C      0.857140000000     0.724440000000     0.519560000000     0.0674012  
C533     C      0.607220000000     0.725170000000     0.978970000000     0.0300271  
C534     C      0.606080000000     0.772650000000     0.008340000000     0.0276321  
C535     C      0.640260000000     0.726890000000     0.977610000000     0.031004   
C536     C      0.639170000000     0.773200000000     0.009260000000     0.0743211  
C537     C      0.729220000000     0.888700000000     0.514620000000     0.0321829  
C538     C      0.771240000000     0.889540000000     0.977830000000     0.0186494  
C539     C      0.730870000000     0.855790000000     0.515750000000     0.0330246  
C540     C      0.771000000000     0.856350000000     0.976540000000     0.0676065  
C541     C      0.771470000000     0.606540000000     0.986370000000     0.0309727  
C542     C      0.722010000000     0.605480000000     0.012340000000     0.0284956  
C543     C      0.770170000000     0.639470000000     0.985210000000     0.0312999  
C544     C      0.721800000000     0.638670000000     0.013660000000     0.0718963  
C545     C      0.722570000000     0.985050000000     0.888730000000     0.0202461  
C546     C      0.769110000000     0.515920000000     0.889340000000     0.0208807  
C547     C      0.723660000000     0.984190000000     0.855710000000     0.0239838  
C548     C      0.769000000000     0.517270000000     0.856210000000     0.0669558  
C549     C      0.733920000000     0.519050000000     0.638210000000     0.0313159  
C550     C      0.766270000000     0.973540000000     0.639870000000     0.0173478  
C551     C      0.733690000000     0.517720000000     0.605310000000     0.0332541  
C552     C      0.768320000000     0.973580000000     0.606670000000     0.0659751  
C553     C      0.519110000000     0.761550000000     0.856280000000     0.0324407  
C554     C      0.970220000000     0.734510000000     0.855100000000     0.0188864  
C555     C      0.517710000000     0.762690000000     0.889210000000     0.0330687  
C556     C      0.970080000000     0.733030000000     0.888310000000     0.066906   
C557     C      0.978720000000     0.731090000000     0.637970000000     0.0209598  
C558     C      0.023520000000     0.764450000000     0.639260000000     0.0209619  
C559     C      0.980470000000     0.729990000000     0.605040000000     0.0248406  
C560     C      0.023710000000     0.765730000000     0.606040000000     0.071622   
C561     C      0.637720000000     0.976620000000     0.731240000000     0.0334965  
C562     C      0.638600000000     0.523520000000     0.761570000000     0.0199595  
C563     C      0.604740000000     0.977540000000     0.730770000000     0.0175853  
C564     C      0.605460000000     0.523260000000     0.763310000000     0.0667287  
C565     C      0.887800000000     0.513700000000     0.727180000000     0.0312506  
C566     C      0.888610000000     0.982160000000     0.773260000000     0.0170658  
C567     C      0.854860000000     0.514600000000     0.728370000000     0.0324015  
C568     C      0.855420000000     0.980860000000     0.773210000000     0.0658999  
C569     C      0.979990000000     0.889310000000     0.726380000000     0.0283874  
C570     C      0.511510000000     0.889720000000     0.772500000000     0.0192168  
C571     C      0.978810000000     0.856310000000     0.727480000000     0.0301025  
C572     C      0.512460000000     0.856580000000     0.772400000000     0.0685417  
C573     C      0.514580000000     0.606510000000     0.726700000000     0.0315961  
C574     C      0.982820000000     0.606500000000     0.772670000000     0.0177695  
C575     C      0.516330000000     0.639480000000     0.727900000000     0.0328125  
C576     C      0.982360000000     0.639640000000     0.772590000000     0.0670735  
H1       H      0.343440000000     0.286480000000     0.471590000000     0.0316806  
H2       H      0.400660000000     0.288950000000     0.472680000000     0.0336593  
H3       H      0.403610000000     0.206600000000     0.030720000000     0.038639   
H4       H      0.152990000000     0.208340000000     0.465220000000     0.0308531  
H5       H      0.095410000000     0.205810000000     0.466970000000     0.0350113  
H6       H      0.093030000000     0.291310000000     0.520310000000     0.0417129  
H7       H      0.214850000000     0.343410000000     0.031520000000     0.0317585  
H8       H      0.212350000000     0.400640000000     0.029840000000     0.0333117  
H9       H      0.287780000000     0.402630000000     0.463100000000     0.0385387  
H10      H      0.289550000000     0.152060000000     0.473990000000     0.0305936  
H11      H      0.291510000000     0.094750000000     0.475500000000     0.033729   
H12      H      0.202490000000     0.092370000000     0.522760000000     0.0393848  
H13      H      0.205390000000     0.471130000000     0.343270000000     0.0315996  
H14      H      0.203930000000     0.472140000000     0.400730000000     0.0337341  
H15      H      0.287640000000     0.028230000000     0.402260000000     0.0408705  
H16      H      0.220180000000     0.035450000000     0.092550000000     0.0320791  
H17      H      0.220200000000     0.037440000000     0.149710000000     0.0346537  
H18      H      0.278940000000     0.455600000000     0.153240000000     0.039207   
H19      H      0.036800000000     0.274330000000     0.401840000000     0.0302716  
H20      H      0.038940000000     0.272830000000     0.344520000000     0.0333702  
H21      H      0.450980000000     0.223670000000     0.341930000000     0.0392139  
H22      H      0.463170000000     0.215870000000     0.092350000000     0.0292338  
H23      H      0.460510000000     0.217320000000     0.149700000000     0.0336488  
H24      H      0.541040000000     0.277870000000     0.152460000000     0.0390704  
H25      H      0.092230000000     0.459010000000     0.218130000000     0.032415   
H26      H      0.149580000000     0.457760000000     0.218500000000     0.0342973  
H27      H      0.151600000000     0.042210000000     0.273530000000     0.0384721  
H28      H      0.342450000000     0.027900000000     0.210230000000     0.032717   
H29      H      0.399670000000     0.026810000000     0.208580000000     0.0347033  
H30      H      0.401600000000     0.469550000000     0.291530000000     0.0397054  
H31      H      0.465520000000     0.343960000000     0.209300000000     0.0308497  
H32      H      0.467020000000     0.401370000000     0.207820000000     0.034324   
H33      H      0.024190000000     0.402520000000     0.290870000000     0.0398552  
H34      H      0.029920000000     0.151680000000     0.209840000000     0.0308919  
H35      H      0.027470000000     0.094260000000     0.208200000000     0.0357291  
H36      H      0.469840000000     0.093860000000     0.290930000000     0.0414468  
H37      H      0.343440000000     0.286480000000     0.971590000000     0.0318672  
H38      H      0.400660000000     0.288950000000     0.972680000000     0.0338435  
H39      H      0.403610000000     0.206600000000     0.530710000000     0.0381699  
H40      H      0.152990000000     0.208340000000     0.965220000000     0.0302461  
H41      H      0.095410000000     0.205810000000     0.966970000000     0.0343966  
H42      H      0.093030000000     0.291310000000     0.020310000000     0.0421997  
H43      H      0.214850000000     0.343410000000     0.531520000000     0.0320108  
H44      H      0.212350000000     0.400640000000     0.529840000000     0.0332651  
H45      H      0.287780000000     0.402630000000     0.963100000000     0.0384571  
H46      H      0.289550000000     0.152060000000     0.973990000000     0.0297135  
H47      H      0.291510000000     0.094750000000     0.975490000000     0.0330402  
H48      H      0.202490000000     0.092370000000     0.022760000000     0.0400285  
H49      H      0.205390000000     0.471130000000     0.843270000000     0.0314253  
H50      H      0.203930000000     0.472140000000     0.900730000000     0.0331947  
H51      H      0.287640000000     0.028230000000     0.902260000000     0.040645   
H52      H      0.220180000000     0.035450000000     0.592550000000     0.031192   
H53      H      0.220200000000     0.037440000000     0.649720000000     0.0344479  
H54      H      0.278940000000     0.455600000000     0.653240000000     0.039148   
H55      H      0.036800000000     0.274330000000     0.901840000000     0.0299644  
H56      H      0.038940000000     0.272830000000     0.844520000000     0.0332494  
H57      H      0.450980000000     0.223670000000     0.841930000000     0.039215   
H58      H      0.463170000000     0.215870000000     0.592350000000     0.0286595  
H59      H      0.460510000000     0.217320000000     0.649700000000     0.0334536  
H60      H      0.541040000000     0.277870000000     0.652460000000     0.039001   
H61      H      0.092230000000     0.459010000000     0.718130000000     0.0322404  
H62      H      0.149580000000     0.457760000000     0.718500000000     0.0341674  
H63      H      0.151600000000     0.042210000000     0.773530000000     0.0383986  
H64      H      0.342450000000     0.027900000000     0.710230000000     0.0325272  
H65      H      0.399670000000     0.026810000000     0.708580000000     0.0344373  
H66      H      0.401600000000     0.469550000000     0.791530000000     0.0395812  
H67      H      0.465520000000     0.343960000000     0.709300000000     0.0306545  
H68      H      0.467020000000     0.401370000000     0.707820000000     0.0340551  
H69      H      0.024190000000     0.402520000000     0.790870000000     0.039702   
H70      H      0.029920000000     0.151680000000     0.709840000000     0.0307126  
H71      H      0.027470000000     0.094260000000     0.708190000000     0.0354777  
H72      H      0.469840000000     0.093860000000     0.790930000000     0.0413378  
H73      H      0.343440000000     0.786480000000     0.471590000000     0.0315653  
H74      H      0.400660000000     0.788950000000     0.472680000000     0.0334537  
H75      H      0.403610000000     0.706600000000     0.030720000000     0.0383054  
H76      H      0.152990000000     0.708340000000     0.465220000000     0.0305894  
H77      H      0.095410000000     0.705810000000     0.466970000000     0.0346105  
H78      H      0.093030000000     0.791310000000     0.520310000000     0.0415327  
H79      H      0.214850000000     0.843410000000     0.031520000000     0.0316358  
H80      H      0.212350000000     0.900640000000     0.029840000000     0.0329325  
H81      H      0.287780000000     0.902630000000     0.463100000000     0.0377794  
H82      H      0.289550000000     0.652060000000     0.473990000000     0.0302967  
H83      H      0.291510000000     0.594750000000     0.475500000000     0.0326924  
H84      H      0.202490000000     0.592370000000     0.522760000000     0.0380552  
H85      H      0.205390000000     0.971130000000     0.343270000000     0.0311699  
H86      H      0.203930000000     0.972140000000     0.400730000000     0.0350074  
H87      H      0.287640000000     0.528230000000     0.402260000000     0.0389475  
H88      H      0.220180000000     0.535450000000     0.092550000000     0.0313013  
H89      H      0.220200000000     0.537440000000     0.149710000000     0.03443    
H90      H      0.278940000000     0.955600000000     0.153240000000     0.0390171  
H91      H      0.036800000000     0.774330000000     0.401840000000     0.0301198  
H92      H      0.038940000000     0.772830000000     0.344520000000     0.0332738  
H93      H      0.450980000000     0.723670000000     0.341930000000     0.0391258  
H94      H      0.463170000000     0.715860000000     0.092350000000     0.028929   
H95      H      0.460510000000     0.717320000000     0.149700000000     0.033424   
H96      H      0.541040000000     0.777870000000     0.152460000000     0.0389725  
H97      H      0.092230000000     0.959010000000     0.218130000000     0.0351319  
H98      H      0.149580000000     0.957760000000     0.218500000000     0.0328655  
H99      H      0.151600000000     0.542210000000     0.273530000000     0.0399022  
H100     H      0.342450000000     0.527900000000     0.210230000000     0.0320707  
H101     H      0.399670000000     0.526810000000     0.208580000000     0.0342216  
H102     H      0.401600000000     0.969550000000     0.291530000000     0.0394303  
H103     H      0.465520000000     0.843970000000     0.209300000000     0.0306367  
H104     H      0.467020000000     0.901370000000     0.207820000000     0.0336326  
H105     H      0.024190000000     0.902520000000     0.290870000000     0.0391807  
H106     H      0.029920000000     0.651680000000     0.209840000000     0.0305516  
H107     H      0.027470000000     0.594260000000     0.208200000000     0.0344003  
H108     H      0.469840000000     0.593860000000     0.290930000000     0.0401049  
H109     H      0.343440000000     0.786480000000     0.971590000000     0.0317541  
H110     H      0.400660000000     0.788950000000     0.972680000000     0.03364    
H111     H      0.403610000000     0.706600000000     0.530710000000     0.0378321  
H112     H      0.152990000000     0.708340000000     0.965220000000     0.0299797  
H113     H      0.095410000000     0.705810000000     0.966970000000     0.0339938  
H114     H      0.093030000000     0.791310000000     0.020310000000     0.0420209  
H115     H      0.214850000000     0.843410000000     0.531520000000     0.0318891  
H116     H      0.212350000000     0.900640000000     0.529840000000     0.0328837  
H117     H      0.287780000000     0.902630000000     0.963100000000     0.0376986  
H118     H      0.289550000000     0.652060000000     0.973990000000     0.0294143  
H119     H      0.291510000000     0.594750000000     0.975490000000     0.0320017  
H120     H      0.202490000000     0.592370000000     0.022760000000     0.038708   
H121     H      0.205390000000     0.971130000000     0.843270000000     0.0309968  
H122     H      0.203930000000     0.972140000000     0.900730000000     0.0344681  
H123     H      0.287640000000     0.528230000000     0.902260000000     0.0387212  
H124     H      0.220180000000     0.535450000000     0.592550000000     0.0304069  
H125     H      0.220200000000     0.537440000000     0.649720000000     0.03422    
H126     H      0.278940000000     0.955600000000     0.653240000000     0.038958   
H127     H      0.036800000000     0.774330000000     0.901840000000     0.0298123  
H128     H      0.038940000000     0.772830000000     0.844520000000     0.0331529  
H129     H      0.450980000000     0.723670000000     0.841930000000     0.0391268  
H130     H      0.463170000000     0.715860000000     0.592350000000     0.0283512  
H131     H      0.460510000000     0.717320000000     0.649700000000     0.033227   
H132     H      0.541040000000     0.777870000000     0.652460000000     0.0389028  
H133     H      0.092230000000     0.959010000000     0.718130000000     0.0349621  
H134     H      0.149580000000     0.957760000000     0.718500000000     0.0327321  
H135     H      0.151600000000     0.542210000000     0.773530000000     0.0398324  
H136     H      0.342450000000     0.527900000000     0.710230000000     0.0318761  
H137     H      0.399670000000     0.526810000000     0.708580000000     0.0339513  
H138     H      0.401600000000     0.969550000000     0.791530000000     0.0393069  
H139     H      0.465520000000     0.843970000000     0.709300000000     0.0304406  
H140     H      0.467020000000     0.901370000000     0.707820000000     0.0333615  
H141     H      0.024190000000     0.902520000000     0.790870000000     0.0390272  
H142     H      0.029920000000     0.651680000000     0.709840000000     0.0303703  
H143     H      0.027470000000     0.594260000000     0.708190000000     0.0341435  
H144     H      0.469840000000     0.593860000000     0.790930000000     0.0399937  
H145     H      0.843440000000     0.286480000000     0.471590000000     0.0315307  
H146     H      0.900660000000     0.288950000000     0.472680000000     0.0331945  
H147     H      0.903610000000     0.206600000000     0.030720000000     0.0379613  
H148     H      0.652990000000     0.208340000000     0.465220000000     0.0305145  
H149     H      0.595410000000     0.205810000000     0.466970000000     0.0336486  
H150     H      0.593030000000     0.291310000000     0.520310000000     0.0408299  
H151     H      0.714850000000     0.343410000000     0.031520000000     0.0316239  
H152     H      0.712350000000     0.400640000000     0.029840000000     0.0330188  
H153     H      0.787780000000     0.402630000000     0.463100000000     0.038351   
H154     H      0.789550000000     0.152060000000     0.473990000000     0.0304984  
H155     H      0.791510000000     0.094750000000     0.475500000000     0.0335289  
H156     H      0.702490000000     0.092370000000     0.522760000000     0.0390361  
H157     H      0.705390000000     0.471130000000     0.343270000000     0.0313473  
H158     H      0.703930000000     0.472140000000     0.400730000000     0.0333539  
H159     H      0.787640000000     0.028230000000     0.402260000000     0.0407053  
H160     H      0.720180000000     0.035450000000     0.092550000000     0.0318365  
H161     H      0.720200000000     0.037440000000     0.149710000000     0.0344571  
H162     H      0.778940000000     0.455600000000     0.153240000000     0.0391154  
H163     H      0.536800000000     0.274330000000     0.401840000000     0.0297413  
H164     H      0.538940000000     0.272830000000     0.344520000000     0.0337159  
H165     H      0.950980000000     0.223670000000     0.341930000000     0.0395083  
H166     H      0.963170000000     0.215870000000     0.092350000000     0.0286141  
H167     H      0.960510000000     0.217320000000     0.149700000000     0.0348927  
H168     H      0.041040000000     0.277870000000     0.152460000000     0.0407124  
H169     H      0.592230000000     0.459010000000     0.218130000000     0.0310088  
H170     H      0.649570000000     0.457760000000     0.218500000000     0.0339677  
H171     H      0.651600000000     0.042210000000     0.273530000000     0.0383834  
H172     H      0.842450000000     0.027900000000     0.210230000000     0.0325186  
H173     H      0.899670000000     0.026810000000     0.208580000000     0.0340521  
H174     H      0.901600000000     0.469550000000     0.291530000000     0.0390202  
H175     H      0.965520000000     0.343960000000     0.209300000000     0.0301747  
H176     H      0.967020000000     0.401370000000     0.207820000000     0.0338249  
H177     H      0.524190000000     0.402520000000     0.290870000000     0.0398824  
H178     H      0.529920000000     0.151680000000     0.209840000000     0.0303735  
H179     H      0.527480000000     0.094260000000     0.208200000000     0.0353855  
H180     H      0.969840000000     0.093860000000     0.290930000000     0.0412306  
H181     H      0.843440000000     0.286480000000     0.971590000000     0.0317183  
H182     H      0.900660000000     0.288950000000     0.972680000000     0.0333797  
H183     H      0.903610000000     0.206600000000     0.530710000000     0.0374898  
H184     H      0.652990000000     0.208340000000     0.965220000000     0.0299066  
H185     H      0.595410000000     0.205810000000     0.966970000000     0.0330337  
H186     H      0.593030000000     0.291310000000     0.020310000000     0.0413223  
H187     H      0.714850000000     0.343410000000     0.531520000000     0.0318758  
H188     H      0.712350000000     0.400640000000     0.529840000000     0.03297    
H189     H      0.787780000000     0.402630000000     0.963100000000     0.0382706  
H190     H      0.789550000000     0.152060000000     0.973990000000     0.0296191  
H191     H      0.791510000000     0.094750000000     0.975490000000     0.0328413  
H192     H      0.702490000000     0.092370000000     0.022760000000     0.0396839  
H193     H      0.705390000000     0.471130000000     0.843270000000     0.0311726  
H194     H      0.703930000000     0.472140000000     0.900730000000     0.0328135  
H195     H      0.787640000000     0.028230000000     0.902260000000     0.0404804  
H196     H      0.720180000000     0.035450000000     0.592550000000     0.0309465  
H197     H      0.720200000000     0.037440000000     0.649720000000     0.0342501  
H198     H      0.778940000000     0.455600000000     0.653240000000     0.0390562  
H199     H      0.536800000000     0.274330000000     0.901840000000     0.0294338  
H200     H      0.538940000000     0.272830000000     0.844520000000     0.0335954  
H201     H      0.950980000000     0.223670000000     0.841930000000     0.0395093  
H202     H      0.963170000000     0.215870000000     0.592350000000     0.0280383  
H203     H      0.960510000000     0.217320000000     0.649700000000     0.0346997  
H204     H      0.041040000000     0.277870000000     0.652460000000     0.0406466  
H205     H      0.592230000000     0.459010000000     0.718130000000     0.0308309  
H206     H      0.649570000000     0.457760000000     0.718500000000     0.0338366  
H207     H      0.651600000000     0.042210000000     0.773530000000     0.0383098  
H208     H      0.842450000000     0.027900000000     0.710230000000     0.0323282  
H209     H      0.899670000000     0.026810000000     0.708580000000     0.0337847  
H210     H      0.901600000000     0.469550000000     0.791530000000     0.0388965  
H211     H      0.965520000000     0.343960000000     0.709300000000     0.0299777  
H212     H      0.967020000000     0.401370000000     0.707820000000     0.0335547  
H213     H      0.524190000000     0.402520000000     0.790870000000     0.0397299  
H214     H      0.529920000000     0.151680000000     0.709840000000     0.0301912  
H215     H      0.527480000000     0.094260000000     0.708190000000     0.0351291  
H216     H      0.969840000000     0.093860000000     0.790930000000     0.0411237  
H217     H      0.843440000000     0.786480000000     0.471590000000     0.0314158  
H218     H      0.900660000000     0.788950000000     0.472680000000     0.0329899  
H219     H      0.903610000000     0.706600000000     0.030720000000     0.0376269  
H220     H      0.652990000000     0.708340000000     0.465220000000     0.0302492  
H221     H      0.595410000000     0.705810000000     0.466970000000     0.0332432  
H222     H      0.593030000000     0.791310000000     0.520310000000     0.0406488  
H223     H      0.714850000000     0.843410000000     0.031520000000     0.0315011  
H224     H      0.712350000000     0.900640000000     0.029840000000     0.0326389  
H225     H      0.787780000000     0.902630000000     0.463100000000     0.0375921  
H226     H      0.789550000000     0.652060000000     0.473990000000     0.0302013  
H227     H      0.791510000000     0.594750000000     0.475500000000     0.0324916  
H228     H      0.702490000000     0.592370000000     0.522760000000     0.0377022  
H229     H      0.705390000000     0.971130000000     0.343270000000     0.0309163  
H230     H      0.703930000000     0.972140000000     0.400730000000     0.0346283  
H231     H      0.787640000000     0.528230000000     0.402260000000     0.0387807  
H232     H      0.720180000000     0.535450000000     0.092550000000     0.0310553  
H233     H      0.720200000000     0.537440000000     0.149710000000     0.0342309  
H234     H      0.778940000000     0.955600000000     0.153240000000     0.0389264  
H235     H      0.536800000000     0.774330000000     0.401840000000     0.0295896  
H236     H      0.538940000000     0.772830000000     0.344520000000     0.0336206  
H237     H      0.950980000000     0.723670000000     0.341930000000     0.0394203  
H238     H      0.963170000000     0.715860000000     0.092350000000     0.0283075  
H239     H      0.960510000000     0.717320000000     0.149700000000     0.0346677  
H240     H      0.041040000000     0.777870000000     0.152460000000     0.0406164  
H241     H      0.592230000000     0.959010000000     0.218130000000     0.0337374  
H242     H      0.649570000000     0.957760000000     0.218500000000     0.0325315  
H243     H      0.651600000000     0.542210000000     0.273530000000     0.0398178  
H244     H      0.842450000000     0.527900000000     0.210230000000     0.031871   
H245     H      0.899670000000     0.526810000000     0.208580000000     0.0335679  
H246     H      0.901600000000     0.969550000000     0.291530000000     0.0387468  
H247     H      0.965520000000     0.843970000000     0.209300000000     0.0299628  
H248     H      0.967020000000     0.901370000000     0.207820000000     0.0331355  
H249     H      0.524190000000     0.902520000000     0.290870000000     0.0392057  
H250     H      0.529920000000     0.651680000000     0.209840000000     0.0300306  
H251     H      0.527480000000     0.594260000000     0.208200000000     0.0340511  
H252     H      0.969840000000     0.593860000000     0.290930000000     0.0398903  
H253     H      0.843440000000     0.786480000000     0.971590000000     0.0316055  
H254     H      0.900660000000     0.788950000000     0.972680000000     0.0331774  
H255     H      0.903610000000     0.706600000000     0.530710000000     0.0371513  
H256     H      0.652990000000     0.708340000000     0.965220000000     0.0296387  
H257     H      0.595410000000     0.705810000000     0.966970000000     0.0326264  
H258     H      0.593030000000     0.791310000000     0.020310000000     0.0411427  
H259     H      0.714850000000     0.843410000000     0.531520000000     0.0317539  
H260     H      0.712350000000     0.900640000000     0.529840000000     0.0325879  
H261     H      0.787780000000     0.902630000000     0.963100000000     0.0375127  
H262     H      0.789550000000     0.652060000000     0.973990000000     0.0293197  
H263     H      0.791510000000     0.594750000000     0.975490000000     0.0318021  
H264     H      0.702490000000     0.592370000000     0.022760000000     0.0383591  
H265     H      0.705390000000     0.971130000000     0.843270000000     0.0307428  
H266     H      0.703930000000     0.972140000000     0.900730000000     0.0340881  
H267     H      0.787640000000     0.528230000000     0.902260000000     0.038555   
H268     H      0.720180000000     0.535450000000     0.592550000000     0.0301581  
H269     H      0.720200000000     0.537440000000     0.649720000000     0.0340198  
H270     H      0.778940000000     0.955600000000     0.653240000000     0.0388672  
H271     H      0.536800000000     0.774330000000     0.901840000000     0.0292818  
H272     H      0.538940000000     0.772830000000     0.844520000000     0.0334999  
H273     H      0.950980000000     0.723670000000     0.841930000000     0.0394213  
H274     H      0.963170000000     0.715860000000     0.592350000000     0.0277282  
H275     H      0.960510000000     0.717320000000     0.649700000000     0.0344731  
H276     H      0.041040000000     0.777870000000     0.652460000000     0.0405502  
H277     H      0.592230000000     0.959010000000     0.718130000000     0.0335644  
H278     H      0.649570000000     0.957760000000     0.718500000000     0.0323968  
H279     H      0.651600000000     0.542210000000     0.773530000000     0.0397479  
H280     H      0.842450000000     0.527900000000     0.710230000000     0.0316759  
H281     H      0.899670000000     0.526810000000     0.708580000000     0.0332963  
H282     H      0.901600000000     0.969550000000     0.791530000000     0.0386239  
H283     H      0.965520000000     0.843970000000     0.709300000000     0.0297649  
H284     H      0.967020000000     0.901370000000     0.707820000000     0.0328631  
H285     H      0.524190000000     0.902520000000     0.790870000000     0.0390529  
H286     H      0.529920000000     0.651680000000     0.709840000000     0.0298462  
H287     H      0.527480000000     0.594260000000     0.708190000000     0.0337893  
H288     H      0.969840000000     0.593860000000     0.790930000000     0.0397811  
N1       N      0.405970000000     0.247820000000     0.501690000000    -0.187783   
N2       N      0.340190000000     0.246380000000     0.002350000000    -0.190577   
N3       N      0.090320000000     0.248330000000     0.993930000000    -0.190638   
N4       N      0.156140000000     0.250160000000     0.993570000000    -0.196632   
N5       N      0.249850000000     0.405390000000     0.996190000000    -0.190709   
N6       N      0.250850000000     0.339610000000     0.496090000000    -0.193565   
N7       N      0.247080000000     0.089700000000     0.499280000000    -0.186813   
N8       N      0.245930000000     0.155450000000     0.499470000000    -0.194079   
N9       N      0.245790000000     0.000180000000     0.405360000000    -0.171906   
N10      N      0.246300000000     0.500750000000     0.339500000000    -0.193443   
N11      N      0.249570000000     0.496560000000     0.155340000000    -0.187735   
N12      N      0.251310000000     0.495600000000     0.089580000000    -0.193444   
N13      N      0.995100000000     0.248010000000     0.339390000000    -0.191471   
N14      N      0.993880000000     0.247700000000     0.405130000000    -0.200337   
N15      N      0.000570000000     0.247830000000     0.154920000000    -0.172834   
N16      N      0.002190000000     0.247950000000     0.089160000000    -0.189108   
N17      N      0.154480000000     0.999840000000     0.246250000000    -0.194058   
N18      N      0.088690000000     0.500070000000     0.247550000000    -0.192707   
N19      N      0.404530000000     0.997970000000     0.249920000000    -0.191427   
N20      N      0.338680000000     0.997580000000     0.250660000000    -0.198114   
N21      N      0.496000000000     0.405850000000     0.249120000000    -0.187288   
N22      N      0.495850000000     0.340020000000     0.249650000000    -0.194108   
N23      N      0.498140000000     0.090200000000     0.249290000000    -0.18616    
N24      N      0.499380000000     0.155950000000     0.249980000000    -0.194148   
N25      N      0.405970000000     0.247820000000     0.001690000000    -0.184453   
N26      N      0.340190000000     0.246380000000     0.502350000000    -0.193731   
N27      N      0.090320000000     0.248330000000     0.493930000000    -0.186332   
N28      N      0.156140000000     0.250160000000     0.493570000000    -0.193951   
N29      N      0.249850000000     0.405390000000     0.496190000000    -0.188119   
N30      N      0.250850000000     0.339610000000     0.996090000000    -0.196594   
N31      N      0.247080000000     0.089700000000     0.999280000000    -0.191087   
N32      N      0.245930000000     0.155450000000     0.999470000000    -0.196778   
N33      N      0.245790000000     0.000180000000     0.905360000000    -0.171777   
N34      N      0.246300000000     0.500750000000     0.839510000000    -0.193386   
N35      N      0.249570000000     0.496560000000     0.655340000000    -0.18772    
N36      N      0.251310000000     0.495600000000     0.589580000000    -0.194218   
N37      N      0.995100000000     0.248010000000     0.839390000000    -0.191455   
N38      N      0.993880000000     0.247700000000     0.905130000000    -0.200233   
N39      N      0.000570000000     0.247830000000     0.654920000000    -0.172812   
N40      N      0.002190000000     0.247950000000     0.589160000000    -0.189797   
N41      N      0.154480000000     0.999840000000     0.746250000000    -0.194088   
N42      N      0.088690000000     0.500070000000     0.747550000000    -0.192763   
N43      N      0.404530000000     0.997970000000     0.749920000000    -0.191476   
N44      N      0.338680000000     0.997580000000     0.750660000000    -0.198143   
N45      N      0.496000000000     0.405850000000     0.749120000000    -0.187323   
N46      N      0.495850000000     0.340020000000     0.749650000000    -0.194131   
N47      N      0.498140000000     0.090200000000     0.749290000000    -0.186171   
N48      N      0.499380000000     0.155950000000     0.749980000000    -0.194175   
N49      N      0.405970000000     0.747820000000     0.501690000000    -0.187825   
N50      N      0.340190000000     0.746390000000     0.002350000000    -0.190616   
N51      N      0.090320000000     0.748330000000     0.993930000000    -0.190699   
N52      N      0.156140000000     0.750160000000     0.993570000000    -0.196667   
N53      N      0.249850000000     0.905390000000     0.996190000000    -0.190505   
N54      N      0.250850000000     0.839620000000     0.496090000000    -0.193519   
N55      N      0.247080000000     0.589700000000     0.499280000000    -0.187833   
N56      N      0.245930000000     0.655450000000     0.499470000000    -0.194153   
N57      N      0.245790000000     0.500180000000     0.405360000000    -0.187987   
N58      N      0.246300000000     0.000750000000     0.339500000000    -0.188965   
N59      N      0.249570000000     0.996560000000     0.155340000000    -0.19201    
N60      N      0.251310000000     0.995600000000     0.089580000000    -0.19977    
N61      N      0.995100000000     0.748010000000     0.339390000000    -0.19149    
N62      N      0.993880000000     0.747700000000     0.405130000000    -0.200415   
N63      N      0.000570000000     0.747840000000     0.154920000000    -0.172839   
N64      N      0.002190000000     0.747950000000     0.089160000000    -0.189184   
N65      N      0.154480000000     0.499840000000     0.246250000000    -0.187717   
N66      N      0.088690000000     0.000070000000     0.247550000000    -0.175061   
N67      N      0.404530000000     0.497970000000     0.249920000000    -0.187683   
N68      N      0.338680000000     0.497580000000     0.250660000000    -0.193445   
N69      N      0.496000000000     0.905850000000     0.249120000000    -0.18701    
N70      N      0.495850000000     0.840020000000     0.249650000000    -0.194146   
N71      N      0.498140000000     0.590200000000     0.249290000000    -0.18726    
N72      N      0.499380000000     0.655950000000     0.249980000000    -0.194189   
N73      N      0.405970000000     0.747820000000     0.001690000000    -0.184484   
N74      N      0.340190000000     0.746390000000     0.502350000000    -0.193782   
N75      N      0.090320000000     0.748330000000     0.493930000000    -0.186382   
N76      N      0.156140000000     0.750160000000     0.493570000000    -0.193979   
N77      N      0.249850000000     0.905390000000     0.496190000000    -0.187912   
N78      N      0.250850000000     0.839620000000     0.996090000000    -0.196556   
N79      N      0.247080000000     0.589700000000     0.999280000000    -0.19213    
N80      N      0.245930000000     0.655450000000     0.999470000000    -0.196865   
N81      N      0.245790000000     0.500180000000     0.905360000000    -0.187862   
N82      N      0.246300000000     0.000750000000     0.839510000000    -0.188899   
N83      N      0.249570000000     0.996560000000     0.655340000000    -0.192011   
N84      N      0.251310000000     0.995600000000     0.589580000000    -0.200572   
N85      N      0.995100000000     0.748010000000     0.839390000000    -0.191474   
N86      N      0.993880000000     0.747700000000     0.905130000000    -0.20031    
N87      N      0.000570000000     0.747840000000     0.654920000000    -0.172817   
N88      N      0.002190000000     0.747950000000     0.589160000000    -0.189876   
N89      N      0.154480000000     0.499840000000     0.746250000000    -0.187736   
N90      N      0.088690000000     0.000070000000     0.747550000000    -0.175081   
N91      N      0.404530000000     0.497970000000     0.749920000000    -0.187722   
N92      N      0.338680000000     0.497580000000     0.750660000000    -0.193464   
N93      N      0.496000000000     0.905850000000     0.749120000000    -0.187044   
N94      N      0.495850000000     0.840020000000     0.749650000000    -0.194169   
N95      N      0.498140000000     0.590200000000     0.749290000000    -0.187275   
N96      N      0.499380000000     0.655950000000     0.749980000000    -0.194216   
N97      N      0.905970000000     0.247820000000     0.501690000000    -0.18764    
N98      N      0.840190000000     0.246380000000     0.002350000000    -0.190616   
N99      N      0.590320000000     0.248330000000     0.993930000000    -0.19155    
N100     N      0.656140000000     0.250160000000     0.993570000000    -0.196678   
N101     N      0.749850000000     0.405390000000     0.996190000000    -0.190701   
N102     N      0.750850000000     0.339610000000     0.496090000000    -0.193599   
N103     N      0.747080000000     0.089700000000     0.499280000000    -0.186856   
N104     N      0.745930000000     0.155450000000     0.499470000000    -0.194123   
N105     N      0.745790000000     0.000180000000     0.405360000000    -0.17194    
N106     N      0.746300000000     0.500750000000     0.339500000000    -0.193473   
N107     N      0.749570000000     0.496560000000     0.155340000000    -0.187757   
N108     N      0.751310000000     0.495600000000     0.089580000000    -0.193522   
N109     N      0.495100000000     0.248010000000     0.339390000000    -0.187478   
N110     N      0.493880000000     0.247700000000     0.405130000000    -0.194246   
N111     N      0.500570000000     0.247830000000     0.154920000000    -0.187613   
N112     N      0.502190000000     0.247950000000     0.089160000000    -0.193699   
N113     N      0.654480000000     0.999840000000     0.246250000000    -0.194019   
N114     N      0.588690000000     0.500070000000     0.247550000000    -0.193919   
N115     N      0.904530000000     0.997970000000     0.249920000000    -0.191171   
N116     N      0.838680000000     0.997580000000     0.250660000000    -0.198152   
N117     N      0.996000000000     0.405850000000     0.249120000000    -0.191069   
N118     N      0.995850000000     0.340020000000     0.249650000000    -0.198029   
N119     N      0.998140000000     0.090200000000     0.249290000000    -0.189756   
N120     N      0.999380000000     0.155950000000     0.249980000000    -0.19845    
N121     N      0.905970000000     0.247820000000     0.001690000000    -0.184309   
N122     N      0.840190000000     0.246380000000     0.502350000000    -0.193771   
N123     N      0.590320000000     0.248330000000     0.493930000000    -0.187229   
N124     N      0.656140000000     0.250160000000     0.493570000000    -0.193989   
N125     N      0.749850000000     0.405390000000     0.496190000000    -0.188107   
N126     N      0.750850000000     0.339610000000     0.996090000000    -0.196633   
N127     N      0.747080000000     0.089700000000     0.999280000000    -0.191138   
N128     N      0.745930000000     0.155450000000     0.999470000000    -0.196827   
N129     N      0.745790000000     0.000180000000     0.905360000000    -0.171811   
N130     N      0.746300000000     0.500750000000     0.839510000000    -0.193416   
N131     N      0.749570000000     0.496560000000     0.655340000000    -0.187742   
N132     N      0.751310000000     0.495600000000     0.589580000000    -0.194298   
N133     N      0.495100000000     0.248010000000     0.839390000000    -0.187464   
N134     N      0.493880000000     0.247700000000     0.905130000000    -0.194144   
N135     N      0.500570000000     0.247830000000     0.654920000000    -0.187625   
N136     N      0.502190000000     0.247950000000     0.589160000000    -0.194405   
N137     N      0.654480000000     0.999840000000     0.746250000000    -0.194049   
N138     N      0.588690000000     0.500070000000     0.747550000000    -0.193977   
N139     N      0.904530000000     0.997970000000     0.749920000000    -0.19122    
N140     N      0.838680000000     0.997580000000     0.750660000000    -0.198181   
N141     N      0.996000000000     0.405850000000     0.749120000000    -0.191107   
N142     N      0.995850000000     0.340020000000     0.749650000000    -0.198055   
N143     N      0.998140000000     0.090200000000     0.749290000000    -0.189772   
N144     N      0.999380000000     0.155950000000     0.749980000000    -0.198482   
N145     N      0.905970000000     0.747820000000     0.501690000000    -0.187682   
N146     N      0.840190000000     0.746390000000     0.002350000000    -0.190655   
N147     N      0.590320000000     0.748330000000     0.993930000000    -0.191613   
N148     N      0.656140000000     0.750160000000     0.993570000000    -0.196714   
N149     N      0.749850000000     0.905390000000     0.996190000000    -0.190496   
N150     N      0.750850000000     0.839620000000     0.496090000000    -0.193553   
N151     N      0.747080000000     0.589700000000     0.499280000000    -0.187878   
N152     N      0.745930000000     0.655450000000     0.499470000000    -0.194198   
N153     N      0.745790000000     0.500180000000     0.405360000000    -0.188042   
N154     N      0.746300000000     0.000750000000     0.339500000000    -0.188988   
N155     N      0.749570000000     0.996560000000     0.155340000000    -0.192037   
N156     N      0.751310000000     0.995600000000     0.089580000000    -0.199855   
N157     N      0.495100000000     0.748010000000     0.339390000000    -0.187494   
N158     N      0.493880000000     0.747700000000     0.405130000000    -0.19432    
N159     N      0.500570000000     0.747840000000     0.154920000000    -0.187635   
N160     N      0.502190000000     0.747950000000     0.089160000000    -0.193785   
N161     N      0.654480000000     0.499840000000     0.246250000000    -0.18766    
N162     N      0.588690000000     0.000070000000     0.247550000000    -0.176204   
N163     N      0.904530000000     0.497970000000     0.249920000000    -0.187428   
N164     N      0.838680000000     0.497580000000     0.250660000000    -0.193485   
N165     N      0.996000000000     0.905850000000     0.249120000000    -0.190791   
N166     N      0.995850000000     0.840020000000     0.249650000000    -0.198065   
N167     N      0.998140000000     0.590200000000     0.249290000000    -0.190863   
N168     N      0.999380000000     0.655950000000     0.249980000000    -0.198501   
N169     N      0.905970000000     0.747820000000     0.001690000000    -0.18434    
N170     N      0.840190000000     0.746390000000     0.502350000000    -0.193823   
N171     N      0.590320000000     0.748330000000     0.493930000000    -0.18728    
N172     N      0.656140000000     0.750160000000     0.493570000000    -0.194018   
N173     N      0.749850000000     0.905390000000     0.496190000000    -0.187899   
N174     N      0.750850000000     0.839620000000     0.996090000000    -0.196595   
N175     N      0.747080000000     0.589700000000     0.999280000000    -0.192183   
N176     N      0.745930000000     0.655450000000     0.999470000000    -0.196914   
N177     N      0.745790000000     0.500180000000     0.905360000000    -0.187917   
N178     N      0.746300000000     0.000750000000     0.839510000000    -0.188922   
N179     N      0.749570000000     0.996560000000     0.655340000000    -0.192037   
N180     N      0.751310000000     0.995600000000     0.589580000000    -0.200658   
N181     N      0.495100000000     0.748010000000     0.839390000000    -0.18748    
N182     N      0.493880000000     0.747700000000     0.905130000000    -0.194218   
N183     N      0.500570000000     0.747840000000     0.654920000000    -0.187647   
N184     N      0.502190000000     0.747950000000     0.589160000000    -0.194493   
N185     N      0.654480000000     0.499840000000     0.746250000000    -0.187678   
N186     N      0.588690000000     0.000070000000     0.747550000000    -0.176226   
N187     N      0.904530000000     0.497970000000     0.749920000000    -0.187467   
N188     N      0.838680000000     0.497580000000     0.750660000000    -0.193505   
N189     N      0.996000000000     0.905850000000     0.749120000000    -0.190829   
N190     N      0.995850000000     0.840020000000     0.749650000000    -0.198091   
N191     N      0.998140000000     0.590200000000     0.749290000000    -0.190882   
N192     N      0.999380000000     0.655950000000     0.749980000000    -0.198534   
O1       O      0.000640000000     0.042860000000     0.222690000000    -0.516291   
O2       O      0.492290000000     0.453240000000     0.222710000000    -0.549328   
O3       O      0.451650000000     0.002100000000     0.223200000000    -0.527902   
O4       O      0.041190000000     0.494100000000     0.222150000000    -0.539212   
O5       O      0.041650000000     0.001920000000     0.274430000000    -0.516587   
O6       O      0.452260000000     0.494310000000     0.275440000000    -0.554891   
O7       O      0.000610000000     0.453360000000     0.274870000000    -0.534226   
O8       O      0.493370000000     0.042730000000     0.275020000000    -0.542818   
O9       O      0.023100000000     0.293350000000     0.250300000000    -0.543968   
O10      O      0.025020000000     0.203660000000     0.245860000000    -0.539989   
O11      O      0.025330000000     0.251020000000     0.203080000000    -0.541413   
O12      O      0.022850000000     0.247450000000     0.292800000000    -0.542274   
O13      O      0.470000000000     0.248550000000     0.291280000000    -0.552031   
O14      O      0.472890000000     0.244750000000     0.201510000000    -0.553176   
O15      O      0.472230000000     0.202580000000     0.248950000000    -0.554436   
O16      O      0.470600000000     0.292220000000     0.244160000000    -0.55124    
O17      O      0.290840000000     0.472000000000     0.253200000000    -0.549363   
O18      O      0.201570000000     0.472990000000     0.243090000000    -0.551319   
O19      O      0.251390000000     0.471350000000     0.203420000000    -0.550687   
O20      O      0.241250000000     0.473680000000     0.292780000000    -0.549955   
O21      O      0.249790000000     0.025800000000     0.291510000000    -0.555393   
O22      O      0.244330000000     0.023670000000     0.201990000000    -0.544551   
O23      O      0.202230000000     0.025400000000     0.249530000000    -0.54417    
O24      O      0.291830000000     0.024020000000     0.244100000000    -0.542531   
O25      O      0.220710000000     0.495640000000     0.453530000000    -0.550059   
O26      O      0.223650000000     0.998640000000     0.043340000000    -0.550162   
O27      O      0.221370000000     0.041970000000     0.498120000000    -0.543185   
O28      O      0.222930000000     0.452220000000     0.000310000000    -0.538653   
O29      O      0.275250000000     0.453120000000     0.492900000000    -0.553741   
O30      O      0.274230000000     0.042730000000     0.998870000000    -0.542573   
O31      O      0.276320000000     0.494430000000     0.041300000000    -0.543639   
O32      O      0.273210000000     0.001350000000     0.451890000000    -0.533678   
O33      O      0.501310000000     0.221430000000     0.042000000000    -0.544568   
O34      O      0.993230000000     0.221390000000     0.452490000000    -0.548248   
O35      O      0.042840000000     0.221470000000     0.992730000000    -0.535303   
O36      O      0.453250000000     0.221500000000     0.501820000000    -0.552746   
O37      O      0.453300000000     0.274120000000     0.996970000000    -0.560522   
O38      O      0.042960000000     0.274110000000     0.497160000000    -0.549918   
O39      O      0.498530000000     0.274000000000     0.452150000000    -0.555484   
O40      O      0.999230000000     0.274310000000     0.041960000000    -0.557594   
O41      O      0.204620000000     0.245250000000     0.469380000000    -0.548807   
O42      O      0.294410000000     0.248650000000     0.473800000000    -0.553815   
O43      O      0.251350000000     0.202060000000     0.472600000000    -0.553365   
O44      O      0.249170000000     0.291780000000     0.470510000000    -0.550621   
O45      O      0.249030000000     0.292850000000     0.023410000000    -0.546011   
O46      O      0.243190000000     0.203230000000     0.024860000000    -0.544131   
O47      O      0.291480000000     0.244760000000     0.026470000000    -0.551422   
O48      O      0.202090000000     0.251270000000     0.021870000000    -0.547434   
O49      O      0.000640000000     0.042860000000     0.722690000000    -0.516379   
O50      O      0.492290000000     0.453240000000     0.722710000000    -0.549475   
O51      O      0.451650000000     0.002100000000     0.723200000000    -0.5279     
O52      O      0.041190000000     0.494100000000     0.722150000000    -0.539453   
O53      O      0.041650000000     0.001920000000     0.774430000000    -0.516534   
O54      O      0.452260000000     0.494310000000     0.775440000000    -0.555093   
O55      O      0.000610000000     0.453360000000     0.774870000000    -0.534306   
O56      O      0.493370000000     0.042730000000     0.775020000000    -0.542892   
O57      O      0.023100000000     0.293350000000     0.750300000000    -0.543983   
O58      O      0.025020000000     0.203660000000     0.745860000000    -0.540027   
O59      O      0.025330000000     0.251020000000     0.703080000000    -0.541477   
O60      O      0.022850000000     0.247450000000     0.792800000000    -0.542292   
O61      O      0.470000000000     0.248550000000     0.791280000000    -0.551983   
O62      O      0.472890000000     0.244750000000     0.701500000000    -0.553119   
O63      O      0.472230000000     0.202580000000     0.748950000000    -0.554425   
O64      O      0.470600000000     0.292220000000     0.744160000000    -0.551248   
O65      O      0.290840000000     0.472000000000     0.753200000000    -0.549363   
O66      O      0.201570000000     0.472990000000     0.743090000000    -0.551378   
O67      O      0.251390000000     0.471350000000     0.703420000000    -0.550901   
O68      O      0.241250000000     0.473680000000     0.792780000000    -0.549783   
O69      O      0.249790000000     0.025800000000     0.791510000000    -0.555358   
O70      O      0.244330000000     0.023670000000     0.701990000000    -0.544624   
O71      O      0.202230000000     0.025400000000     0.749530000000    -0.54419    
O72      O      0.291830000000     0.024020000000     0.744100000000    -0.542545   
O73      O      0.220710000000     0.495640000000     0.953530000000    -0.547831   
O74      O      0.223650000000     0.998640000000     0.543340000000    -0.557958   
O75      O      0.221370000000     0.041970000000     0.998120000000    -0.542785   
O76      O      0.222930000000     0.452220000000     0.500310000000    -0.553475   
O77      O      0.275250000000     0.453120000000     0.992900000000    -0.551714   
O78      O      0.274230000000     0.042730000000     0.498870000000    -0.542187   
O79      O      0.276320000000     0.494430000000     0.541300000000    -0.550543   
O80      O      0.273210000000     0.001350000000     0.951890000000    -0.532194   
O81      O      0.501310000000     0.221430000000     0.542000000000    -0.552088   
O82      O      0.993230000000     0.221390000000     0.952490000000    -0.546412   
O83      O      0.042840000000     0.221470000000     0.492730000000    -0.536342   
O84      O      0.453250000000     0.221500000000     0.001820000000    -0.546956   
O85      O      0.453300000000     0.274120000000     0.496970000000    -0.553491   
O86      O      0.042960000000     0.274110000000     0.997160000000    -0.551798   
O87      O      0.498530000000     0.274000000000     0.952150000000    -0.554524   
O88      O      0.999230000000     0.274310000000     0.541960000000    -0.563998   
O89      O      0.204620000000     0.245250000000     0.969380000000    -0.546408   
O90      O      0.294410000000     0.248650000000     0.973800000000    -0.559869   
O91      O      0.251350000000     0.202060000000     0.972610000000    -0.55112    
O92      O      0.249170000000     0.291780000000     0.970510000000    -0.548005   
O93      O      0.249030000000     0.292850000000     0.523410000000    -0.552928   
O94      O      0.243190000000     0.203230000000     0.524860000000    -0.550948   
O95      O      0.291480000000     0.244760000000     0.526470000000    -0.54977    
O96      O      0.202090000000     0.251270000000     0.521870000000    -0.554135   
O97      O      0.000640000000     0.542860000000     0.222690000000    -0.527877   
O98      O      0.492290000000     0.953240000000     0.222710000000    -0.545841   
O99      O      0.451650000000     0.502100000000     0.223200000000    -0.550466   
O100     O      0.041190000000     0.994100000000     0.222150000000    -0.531112   
O101     O      0.041650000000     0.501920000000     0.274430000000    -0.541565   
O102     O      0.452260000000     0.994310000000     0.275440000000    -0.548859   
O103     O      0.000610000000     0.953360000000     0.274870000000    -0.530441   
O104     O      0.493370000000     0.542730000000     0.275020000000    -0.554414   
O105     O      0.023100000000     0.793340000000     0.250300000000    -0.543894   
O106     O      0.025020000000     0.703650000000     0.245860000000    -0.540127   
O107     O      0.025330000000     0.751020000000     0.203080000000    -0.541444   
O108     O      0.022850000000     0.747450000000     0.292800000000    -0.542296   
O109     O      0.470000000000     0.748550000000     0.291280000000    -0.552083   
O110     O      0.472890000000     0.744750000000     0.201510000000    -0.553285   
O111     O      0.472230000000     0.702590000000     0.248950000000    -0.554721   
O112     O      0.470600000000     0.792220000000     0.244160000000    -0.551278   
O113     O      0.290840000000     0.972000000000     0.253200000000    -0.545554   
O114     O      0.201570000000     0.972990000000     0.243090000000    -0.547494   
O115     O      0.251390000000     0.971350000000     0.203420000000    -0.546822   
O116     O      0.241250000000     0.973680000000     0.292780000000    -0.559251   
O117     O      0.249790000000     0.525800000000     0.291510000000    -0.552498   
O118     O      0.244330000000     0.523670000000     0.201990000000    -0.555042   
O119     O      0.202230000000     0.525400000000     0.249530000000    -0.554334   
O120     O      0.291830000000     0.524020000000     0.244100000000    -0.553047   
O121     O      0.220710000000     0.995640000000     0.453530000000    -0.54472    
O122     O      0.223650000000     0.498640000000     0.043340000000    -0.548364   
O123     O      0.221370000000     0.541970000000     0.498120000000    -0.553583   
O124     O      0.222930000000     0.952230000000     0.000310000000    -0.536563   
O125     O      0.275250000000     0.953120000000     0.492900000000    -0.550012   
O126     O      0.274230000000     0.542730000000     0.998870000000    -0.554486   
O127     O      0.276320000000     0.994430000000     0.041300000000    -0.541358   
O128     O      0.273210000000     0.501350000000     0.451890000000    -0.558607   
O129     O      0.501310000000     0.721430000000     0.042000000000    -0.544804   
O130     O      0.993230000000     0.721390000000     0.452490000000    -0.548465   
O131     O      0.042840000000     0.721470000000     0.992730000000    -0.535633   
O132     O      0.453250000000     0.721500000000     0.501820000000    -0.552953   
O133     O      0.453300000000     0.774120000000     0.996970000000    -0.560687   
O134     O      0.042960000000     0.774110000000     0.497160000000    -0.549927   
O135     O      0.498530000000     0.774000000000     0.452150000000    -0.555636   
O136     O      0.999230000000     0.774310000000     0.041960000000    -0.557728   
O137     O      0.204620000000     0.745250000000     0.469380000000    -0.548901   
O138     O      0.294410000000     0.748640000000     0.473800000000    -0.553874   
O139     O      0.251350000000     0.702060000000     0.472600000000    -0.553644   
O140     O      0.249170000000     0.791780000000     0.470510000000    -0.550454   
O141     O      0.249030000000     0.792850000000     0.023410000000    -0.545956   
O142     O      0.243190000000     0.703230000000     0.024860000000    -0.544198   
O143     O      0.291480000000     0.744760000000     0.026470000000    -0.551461   
O144     O      0.202090000000     0.751270000000     0.021870000000    -0.54742    
O145     O      0.000640000000     0.542860000000     0.722690000000    -0.527994   
O146     O      0.492290000000     0.953240000000     0.722710000000    -0.54598    
O147     O      0.451650000000     0.502100000000     0.723200000000    -0.550512   
O148     O      0.041190000000     0.994100000000     0.722150000000    -0.531333   
O149     O      0.041650000000     0.501920000000     0.774430000000    -0.541548   
O150     O      0.452260000000     0.994310000000     0.775440000000    -0.549047   
O151     O      0.000610000000     0.953360000000     0.774870000000    -0.530515   
O152     O      0.493370000000     0.542730000000     0.775020000000    -0.554507   
O153     O      0.023100000000     0.793340000000     0.750300000000    -0.543909   
O154     O      0.025020000000     0.703650000000     0.745860000000    -0.540166   
O155     O      0.025330000000     0.751020000000     0.703080000000    -0.541508   
O156     O      0.022850000000     0.747450000000     0.792800000000    -0.542315   
O157     O      0.470000000000     0.748550000000     0.791280000000    -0.552034   
O158     O      0.472890000000     0.744750000000     0.701500000000    -0.553228   
O159     O      0.472230000000     0.702590000000     0.748950000000    -0.55471    
O160     O      0.470600000000     0.792220000000     0.744160000000    -0.551286   
O161     O      0.290840000000     0.972000000000     0.753200000000    -0.545546   
O162     O      0.201570000000     0.972990000000     0.743090000000    -0.547546   
O163     O      0.251390000000     0.971350000000     0.703420000000    -0.547025   
O164     O      0.241250000000     0.973680000000     0.792780000000    -0.559093   
O165     O      0.249790000000     0.525800000000     0.791510000000    -0.552457   
O166     O      0.244330000000     0.523670000000     0.701990000000    -0.555147   
O167     O      0.202230000000     0.525400000000     0.749530000000    -0.554375   
O168     O      0.291830000000     0.524020000000     0.744100000000    -0.553083   
O169     O      0.220710000000     0.995640000000     0.953530000000    -0.542491   
O170     O      0.223650000000     0.498640000000     0.543340000000    -0.556145   
O171     O      0.221370000000     0.541970000000     0.998120000000    -0.553187   
O172     O      0.222930000000     0.952230000000     0.500310000000    -0.5514     
O173     O      0.275250000000     0.953120000000     0.992900000000    -0.547986   
O174     O      0.274230000000     0.542730000000     0.498870000000    -0.554104   
O175     O      0.276320000000     0.994430000000     0.541300000000    -0.548269   
O176     O      0.273210000000     0.501350000000     0.951890000000    -0.557121   
O177     O      0.501310000000     0.721430000000     0.542000000000    -0.552351   
O178     O      0.993230000000     0.721390000000     0.952490000000    -0.546623   
O179     O      0.042840000000     0.721470000000     0.492730000000    -0.536678   
O180     O      0.453250000000     0.721500000000     0.001820000000    -0.547138   
O181     O      0.453300000000     0.774120000000     0.496970000000    -0.553636   
O182     O      0.042960000000     0.774110000000     0.997160000000    -0.55181    
O183     O      0.498530000000     0.774000000000     0.952150000000    -0.554675   
O184     O      0.999230000000     0.774310000000     0.541960000000    -0.564148   
O185     O      0.204620000000     0.745250000000     0.969380000000    -0.546496   
O186     O      0.294410000000     0.748640000000     0.973800000000    -0.559949   
O187     O      0.251350000000     0.702060000000     0.972610000000    -0.55139    
O188     O      0.249170000000     0.791780000000     0.970510000000    -0.547834   
O189     O      0.249030000000     0.792850000000     0.523410000000    -0.552889   
O190     O      0.243190000000     0.703230000000     0.524860000000    -0.551043   
O191     O      0.291480000000     0.744760000000     0.526470000000    -0.549803   
O192     O      0.202090000000     0.751270000000     0.521870000000    -0.554141   
O193     O      0.500640000000     0.042860000000     0.222690000000    -0.537439   
O194     O      0.992290000000     0.453240000000     0.222710000000    -0.543833   
O195     O      0.951650000000     0.002100000000     0.223200000000    -0.524693   
O196     O      0.541190000000     0.494100000000     0.222150000000    -0.550323   
O197     O      0.541650000000     0.001920000000     0.274430000000    -0.527529   
O198     O      0.952260000000     0.494310000000     0.275440000000    -0.551566   
O199     O      0.500610000000     0.453360000000     0.274870000000    -0.555516   
O200     O      0.993370000000     0.042730000000     0.275020000000    -0.537277   
O201     O      0.523100000000     0.293350000000     0.250300000000    -0.55426    
O202     O      0.525020000000     0.203660000000     0.245860000000    -0.550772   
O203     O      0.525330000000     0.251020000000     0.203080000000    -0.553954   
O204     O      0.522850000000     0.247450000000     0.292800000000    -0.55289    
O205     O      0.970000000000     0.248550000000     0.291280000000    -0.547678   
O206     O      0.972890000000     0.244750000000     0.201510000000    -0.546716   
O207     O      0.972230000000     0.202580000000     0.248950000000    -0.549946   
O208     O      0.970600000000     0.292220000000     0.244160000000    -0.547133   
O209     O      0.790840000000     0.472000000000     0.253200000000    -0.549381   
O210     O      0.701570000000     0.472990000000     0.243090000000    -0.551415   
O211     O      0.751390000000     0.471350000000     0.203420000000    -0.550744   
O212     O      0.741250000000     0.473680000000     0.292780000000    -0.550001   
O213     O      0.749790000000     0.025800000000     0.291510000000    -0.555433   
O214     O      0.744330000000     0.023670000000     0.201990000000    -0.544599   
O215     O      0.702230000000     0.025400000000     0.249530000000    -0.54424    
O216     O      0.791830000000     0.024020000000     0.244100000000    -0.542554   
O217     O      0.720710000000     0.495640000000     0.453530000000    -0.550293   
O218     O      0.723650000000     0.998640000000     0.043340000000    -0.550345   
O219     O      0.721370000000     0.041970000000     0.498120000000    -0.543383   
O220     O      0.722930000000     0.452220000000     0.000310000000    -0.538744   
O221     O      0.775260000000     0.453120000000     0.492900000000    -0.553683   
O222     O      0.774230000000     0.042730000000     0.998870000000    -0.54269    
O223     O      0.776320000000     0.494430000000     0.041300000000    -0.543771   
O224     O      0.773210000000     0.001350000000     0.451890000000    -0.533774   
O225     O      0.001310000000     0.221430000000     0.042000000000    -0.535307   
O226     O      0.493230000000     0.221390000000     0.452490000000    -0.549771   
O227     O      0.542840000000     0.221470000000     0.992730000000    -0.545994   
O228     O      0.953250000000     0.221500000000     0.501820000000    -0.549862   
O229     O      0.953300000000     0.274120000000     0.996970000000    -0.559041   
O230     O      0.542960000000     0.274110000000     0.497160000000    -0.559023   
O231     O      0.998530000000     0.274000000000     0.452150000000    -0.557751   
O232     O      0.499230000000     0.274310000000     0.041960000000    -0.546162   
O233     O      0.704620000000     0.245250000000     0.469380000000    -0.548929   
O234     O      0.794410000000     0.248650000000     0.473800000000    -0.553826   
O235     O      0.751350000000     0.202060000000     0.472600000000    -0.553419   
O236     O      0.749170000000     0.291780000000     0.470510000000    -0.550664   
O237     O      0.749030000000     0.292850000000     0.023410000000    -0.546034   
O238     O      0.743190000000     0.203230000000     0.024860000000    -0.544129   
O239     O      0.791480000000     0.244760000000     0.026470000000    -0.55146    
O240     O      0.702090000000     0.251270000000     0.021870000000    -0.547444   
O241     O      0.500640000000     0.042860000000     0.722690000000    -0.537561   
O242     O      0.992290000000     0.453240000000     0.722710000000    -0.543973   
O243     O      0.951650000000     0.002100000000     0.723200000000    -0.524687   
O244     O      0.541190000000     0.494100000000     0.722150000000    -0.550584   
O245     O      0.541650000000     0.001920000000     0.774430000000    -0.527483   
O246     O      0.952260000000     0.494310000000     0.775440000000    -0.551765   
O247     O      0.500610000000     0.453360000000     0.774870000000    -0.555616   
O248     O      0.993370000000     0.042730000000     0.775020000000    -0.537343   
O249     O      0.523100000000     0.293350000000     0.750300000000    -0.554287   
O250     O      0.525020000000     0.203660000000     0.745860000000    -0.550823   
O251     O      0.525330000000     0.251020000000     0.703080000000    -0.554045   
O252     O      0.522850000000     0.247450000000     0.792800000000    -0.552915   
O253     O      0.970000000000     0.248550000000     0.791280000000    -0.547626   
O254     O      0.972890000000     0.244750000000     0.701500000000    -0.546647   
O255     O      0.972230000000     0.202580000000     0.748950000000    -0.549931   
O256     O      0.970600000000     0.292220000000     0.744160000000    -0.547137   
O257     O      0.790840000000     0.472000000000     0.753200000000    -0.54938    
O258     O      0.701570000000     0.472990000000     0.743090000000    -0.551475   
O259     O      0.751390000000     0.471350000000     0.703420000000    -0.550959   
O260     O      0.741250000000     0.473680000000     0.792780000000    -0.549829   
O261     O      0.749790000000     0.025800000000     0.791510000000    -0.555398   
O262     O      0.744330000000     0.023670000000     0.701990000000    -0.544673   
O263     O      0.702230000000     0.025400000000     0.749530000000    -0.54426    
O264     O      0.791830000000     0.024020000000     0.744100000000    -0.542568   
O265     O      0.720710000000     0.495640000000     0.953530000000    -0.548061   
O266     O      0.723650000000     0.998640000000     0.543340000000    -0.558157   
O267     O      0.721370000000     0.041970000000     0.998120000000    -0.542981   
O268     O      0.722930000000     0.452220000000     0.500310000000    -0.553598   
O269     O      0.775260000000     0.453120000000     0.992900000000    -0.551653   
O270     O      0.774230000000     0.042730000000     0.498870000000    -0.542305   
O271     O      0.776320000000     0.494430000000     0.541300000000    -0.550684   
O272     O      0.773210000000     0.001350000000     0.951890000000    -0.53229    
O273     O      0.001310000000     0.221430000000     0.542000000000    -0.542773   
O274     O      0.493230000000     0.221390000000     0.952490000000    -0.547923   
O275     O      0.542840000000     0.221470000000     0.492730000000    -0.547055   
O276     O      0.953250000000     0.221500000000     0.001820000000    -0.544085   
O277     O      0.953300000000     0.274120000000     0.496970000000    -0.552011   
O278     O      0.542960000000     0.274110000000     0.997160000000    -0.560894   
O279     O      0.998530000000     0.274000000000     0.952150000000    -0.556792   
O280     O      0.499230000000     0.274310000000     0.541960000000    -0.552529   
O281     O      0.704620000000     0.245250000000     0.969380000000    -0.546526   
O282     O      0.794410000000     0.248650000000     0.973800000000    -0.559886   
O283     O      0.751350000000     0.202060000000     0.972610000000    -0.55117    
O284     O      0.749170000000     0.291780000000     0.970510000000    -0.548045   
O285     O      0.749030000000     0.292850000000     0.523410000000    -0.552962   
O286     O      0.743190000000     0.203230000000     0.524860000000    -0.550958   
O287     O      0.791480000000     0.244760000000     0.526470000000    -0.549805   
O288     O      0.702090000000     0.251270000000     0.521870000000    -0.554161   
O289     O      0.500640000000     0.542860000000     0.222690000000    -0.549144   
O290     O      0.992290000000     0.953240000000     0.222710000000    -0.54037    
O291     O      0.951650000000     0.502100000000     0.223200000000    -0.547211   
O292     O      0.541190000000     0.994100000000     0.222150000000    -0.542172   
O293     O      0.541650000000     0.501920000000     0.274430000000    -0.552638   
O294     O      0.952260000000     0.994310000000     0.275440000000    -0.545561   
O295     O      0.500610000000     0.953360000000     0.274870000000    -0.551682   
O296     O      0.993370000000     0.542730000000     0.275020000000    -0.548829   
O297     O      0.523100000000     0.793340000000     0.250300000000    -0.554186   
O298     O      0.525020000000     0.703650000000     0.245860000000    -0.550933   
O299     O      0.525330000000     0.751020000000     0.203080000000    -0.553998   
O300     O      0.522850000000     0.747450000000     0.292800000000    -0.552925   
O301     O      0.970000000000     0.748550000000     0.291280000000    -0.547725   
O302     O      0.972890000000     0.744750000000     0.201510000000    -0.546818   
O303     O      0.972230000000     0.702590000000     0.248950000000    -0.550224   
O304     O      0.970600000000     0.792220000000     0.244160000000    -0.54717    
O305     O      0.790840000000     0.972000000000     0.253200000000    -0.54557    
O306     O      0.701570000000     0.972990000000     0.243090000000    -0.547587   
O307     O      0.751390000000     0.971350000000     0.203420000000    -0.546876   
O308     O      0.741250000000     0.973680000000     0.292780000000    -0.559309   
O309     O      0.749790000000     0.525800000000     0.291510000000    -0.552533   
O310     O      0.744330000000     0.523670000000     0.201990000000    -0.555102   
O311     O      0.702230000000     0.525400000000     0.249530000000    -0.554423   
O312     O      0.791830000000     0.524020000000     0.244100000000    -0.553073   
O313     O      0.720710000000     0.995640000000     0.453530000000    -0.544948   
O314     O      0.723650000000     0.498640000000     0.043340000000    -0.548545   
O315     O      0.721370000000     0.541970000000     0.498120000000    -0.553797   
O316     O      0.722930000000     0.952230000000     0.000310000000    -0.536653   
O317     O      0.775260000000     0.953120000000     0.492900000000    -0.549952   
O318     O      0.774230000000     0.542730000000     0.998870000000    -0.554611   
O319     O      0.776320000000     0.994430000000     0.041300000000    -0.541487   
O320     O      0.773210000000     0.501350000000     0.451890000000    -0.558726   
O321     O      0.001310000000     0.721430000000     0.042000000000    -0.535522   
O322     O      0.493230000000     0.721390000000     0.452490000000    -0.549992   
O323     O      0.542840000000     0.721470000000     0.992730000000    -0.546343   
O324     O      0.953250000000     0.721500000000     0.501820000000    -0.550065   
O325     O      0.953300000000     0.774120000000     0.996970000000    -0.559206   
O326     O      0.542960000000     0.774110000000     0.497160000000    -0.559037   
O327     O      0.998530000000     0.774000000000     0.452150000000    -0.557904   
O328     O      0.499230000000     0.774310000000     0.041960000000    -0.546286   
O329     O      0.704620000000     0.745250000000     0.469380000000    -0.549023   
O330     O      0.794410000000     0.748640000000     0.473800000000    -0.553885   
O331     O      0.751350000000     0.702060000000     0.472600000000    -0.553698   
O332     O      0.749170000000     0.791780000000     0.470510000000    -0.550497   
O333     O      0.749030000000     0.792850000000     0.023410000000    -0.545978   
O334     O      0.743190000000     0.703230000000     0.024860000000    -0.544197   
O335     O      0.791480000000     0.744760000000     0.026470000000    -0.5515     
O336     O      0.702090000000     0.751270000000     0.021870000000    -0.54743    
O337     O      0.500640000000     0.542860000000     0.722690000000    -0.549296   
O338     O      0.992290000000     0.953240000000     0.722710000000    -0.540502   
O339     O      0.951650000000     0.502100000000     0.723200000000    -0.547253   
O340     O      0.541190000000     0.994100000000     0.722150000000    -0.542412   
O341     O      0.541650000000     0.501920000000     0.774430000000    -0.552629   
O342     O      0.952260000000     0.994310000000     0.775440000000    -0.545745   
O343     O      0.500610000000     0.953360000000     0.774870000000    -0.551777   
O344     O      0.993370000000     0.542730000000     0.775020000000    -0.548914   
O345     O      0.523100000000     0.793340000000     0.750300000000    -0.554213   
O346     O      0.525020000000     0.703650000000     0.745860000000    -0.550985   
O347     O      0.525330000000     0.751020000000     0.703080000000    -0.554089   
O348     O      0.522850000000     0.747450000000     0.792800000000    -0.552949   
O349     O      0.970000000000     0.748550000000     0.791280000000    -0.547673   
O350     O      0.972890000000     0.744750000000     0.701500000000    -0.546749   
O351     O      0.972230000000     0.702590000000     0.748950000000    -0.550209   
O352     O      0.970600000000     0.792220000000     0.744160000000    -0.547173   
O353     O      0.790840000000     0.972000000000     0.753200000000    -0.545562   
O354     O      0.701570000000     0.972990000000     0.743090000000    -0.547638   
O355     O      0.751390000000     0.971350000000     0.703420000000    -0.547079   
O356     O      0.741250000000     0.973680000000     0.792780000000    -0.559151   
O357     O      0.749790000000     0.525800000000     0.791510000000    -0.552492   
O358     O      0.744330000000     0.523670000000     0.701990000000    -0.555208   
O359     O      0.702230000000     0.525400000000     0.749530000000    -0.554464   
O360     O      0.791830000000     0.524020000000     0.744100000000    -0.553109   
O361     O      0.720710000000     0.995640000000     0.953530000000    -0.542715   
O362     O      0.723650000000     0.498640000000     0.543340000000    -0.556342   
O363     O      0.721370000000     0.541970000000     0.998120000000    -0.5534     
O364     O      0.722930000000     0.952230000000     0.500310000000    -0.551521   
O365     O      0.775260000000     0.953120000000     0.992900000000    -0.547924   
O366     O      0.774230000000     0.542730000000     0.498870000000    -0.554229   
O367     O      0.776320000000     0.994430000000     0.541300000000    -0.548406   
O368     O      0.773210000000     0.501350000000     0.951890000000    -0.557239   
O369     O      0.001310000000     0.721430000000     0.542000000000    -0.543015   
O370     O      0.493230000000     0.721390000000     0.952490000000    -0.548138   
O371     O      0.542840000000     0.721470000000     0.492730000000    -0.547409   
O372     O      0.953250000000     0.721500000000     0.001820000000    -0.544263   
O373     O      0.953300000000     0.774120000000     0.496970000000    -0.552156   
O374     O      0.542960000000     0.774110000000     0.997160000000    -0.560912   
O375     O      0.998530000000     0.774000000000     0.952150000000    -0.556943   
O376     O      0.499230000000     0.774310000000     0.541960000000    -0.55267    
O377     O      0.704620000000     0.745250000000     0.969380000000    -0.546614   
O378     O      0.794410000000     0.748640000000     0.973800000000    -0.559966   
O379     O      0.751350000000     0.702060000000     0.972610000000    -0.55144    
O380     O      0.749170000000     0.791780000000     0.970510000000    -0.547873   
O381     O      0.749030000000     0.792850000000     0.523410000000    -0.552922   
O382     O      0.743190000000     0.703230000000     0.524860000000    -0.551053   
O383     O      0.791480000000     0.744760000000     0.526470000000    -0.549838   
O384     O      0.702090000000     0.751270000000     0.521870000000    -0.554168   
S1       S      0.340440000000     0.196500000000     0.038610000000    -0.0121603  
S2       S      0.155760000000     0.302500000000     0.526280000000    -0.0180753  
S3       S      0.296460000000     0.339440000000     0.454460000000    -0.0187267  
S4       S      0.191780000000     0.155620000000     0.528990000000    -0.0140157  
S5       S      0.297560000000     0.035300000000     0.339350000000    -0.00650524 
S6       S      0.287840000000     0.445910000000     0.090070000000    -0.0118639  
S7       S      0.440590000000     0.216740000000     0.405280000000    -0.0146749  
S8       S      0.550890000000     0.285700000000     0.089150000000    -0.0166523  
S9       S      0.088550000000     0.051980000000     0.281010000000    -0.0025603  
S10      S      0.338530000000     0.462470000000     0.301500000000    -0.0122205  
S11      S      0.030410000000     0.339450000000     0.300850000000    -0.0128909  
S12      S      0.464340000000     0.157080000000     0.300810000000    -0.0148794  
S13      S      0.340440000000     0.196500000000     0.538610000000    -0.015689   
S14      S      0.155760000000     0.302500000000     0.026280000000    -0.014974   
S15      S      0.296460000000     0.339440000000     0.954460000000    -0.0201992  
S16      S      0.191780000000     0.155620000000     0.028990000000    -0.00961873 
S17      S      0.297560000000     0.035300000000     0.839350000000    -0.00685669 
S18      S      0.287840000000     0.445910000000     0.590070000000    -0.0149972  
S19      S      0.440590000000     0.216740000000     0.905280000000    -0.016769   
S20      S      0.550890000000     0.285700000000     0.589150000000    -0.019145   
S21      S      0.088550000000     0.051980000000     0.781010000000    -0.00296088 
S22      S      0.338530000000     0.462470000000     0.801500000000    -0.0124916  
S23      S      0.030410000000     0.339450000000     0.800850000000    -0.0132915  
S24      S      0.464340000000     0.157080000000     0.800810000000    -0.0152129  
S25      S      0.340440000000     0.696500000000     0.038610000000    -0.0131635  
S26      S      0.155760000000     0.802500000000     0.526280000000    -0.0185441  
S27      S      0.296460000000     0.839440000000     0.454460000000    -0.0194257  
S28      S      0.191780000000     0.655630000000     0.528990000000    -0.0153369  
S29      S      0.297560000000     0.535290000000     0.339350000000    -0.0121884  
S30      S      0.287840000000     0.945910000000     0.090070000000    -0.0138147  
S31      S      0.440590000000     0.716740000000     0.405280000000    -0.0154963  
S32      S      0.550890000000     0.785700000000     0.089150000000    -0.0172323  
S33      S      0.088550000000     0.551980000000     0.281010000000    -0.00826494 
S34      S      0.338530000000     0.962470000000     0.301500000000    -0.0172372  
S35      S      0.030410000000     0.839450000000     0.300850000000    -0.0135671  
S36      S      0.464340000000     0.657080000000     0.300810000000    -0.0160652  
S37      S      0.340440000000     0.696500000000     0.538610000000    -0.0167141  
S38      S      0.155760000000     0.802500000000     0.026280000000    -0.0154326  
S39      S      0.296460000000     0.839440000000     0.954460000000    -0.0209     
S40      S      0.191780000000     0.655630000000     0.028990000000    -0.0109132  
S41      S      0.297560000000     0.535290000000     0.839350000000    -0.0125504  
S42      S      0.287840000000     0.945910000000     0.590070000000    -0.0169579  
S43      S      0.440590000000     0.716740000000     0.905280000000    -0.0175973  
S44      S      0.550890000000     0.785700000000     0.589150000000    -0.0197336  
S45      S      0.088550000000     0.551980000000     0.781010000000    -0.00867633 
S46      S      0.338530000000     0.962470000000     0.801500000000    -0.0175112  
S47      S      0.030410000000     0.839450000000     0.800850000000    -0.0139679  
S48      S      0.464340000000     0.657080000000     0.800810000000    -0.0164009  
S49      S      0.840440000000     0.196500000000     0.038610000000    -0.0127972  
S50      S      0.655760000000     0.302500000000     0.526280000000    -0.0190446  
S51      S      0.796460000000     0.339440000000     0.454460000000    -0.0192386  
S52      S      0.691780000000     0.155620000000     0.528990000000    -0.0149737  
S53      S      0.797560000000     0.035300000000     0.339350000000    -0.00686445 
S54      S      0.787840000000     0.445910000000     0.090070000000    -0.0124919  
S55      S      0.940590000000     0.216740000000     0.405280000000    -0.015906   
S56      S      0.050890000000     0.285700000000     0.089150000000    -0.0124465  
S57      S      0.588550000000     0.051980000000     0.281010000000    -0.00717591 
S58      S      0.838530000000     0.462470000000     0.301500000000    -0.0129182  
S59      S      0.530410000000     0.339450000000     0.300850000000    -0.0172983  
S60      S      0.964340000000     0.157080000000     0.300810000000    -0.0173565  
S61      S      0.840440000000     0.196500000000     0.538610000000    -0.0163322  
S62      S      0.655760000000     0.302500000000     0.026280000000    -0.015929   
S63      S      0.796460000000     0.339440000000     0.954460000000    -0.0207097  
S64      S      0.691780000000     0.155620000000     0.028990000000    -0.0105582  
S65      S      0.797560000000     0.035300000000     0.839350000000    -0.00721517 
S66      S      0.787840000000     0.445910000000     0.590070000000    -0.0156308  
S67      S      0.940590000000     0.216740000000     0.905280000000    -0.0179971  
S68      S      0.050890000000     0.285700000000     0.589150000000    -0.0149142  
S69      S      0.588550000000     0.051980000000     0.781010000000    -0.00758071 
S70      S      0.838530000000     0.462470000000     0.801500000000    -0.0131885  
S71      S      0.530410000000     0.339450000000     0.800850000000    -0.0177022  
S72      S      0.964340000000     0.157080000000     0.800810000000    -0.0176879  
S73      S      0.840440000000     0.696500000000     0.038610000000    -0.0138014  
S74      S      0.655760000000     0.802500000000     0.526280000000    -0.0195145  
S75      S      0.796460000000     0.839440000000     0.454460000000    -0.0199364  
S76      S      0.691780000000     0.655630000000     0.528990000000    -0.0163012  
S77      S      0.797560000000     0.535290000000     0.339350000000    -0.0125497  
S78      S      0.787840000000     0.945910000000     0.090070000000    -0.0144394  
S79      S      0.940590000000     0.716740000000     0.405280000000    -0.0167279  
S80      S      0.050890000000     0.785700000000     0.089150000000    -0.0130225  
S81      S      0.588550000000     0.551980000000     0.281010000000    -0.0129162  
S82      S      0.838530000000     0.962470000000     0.301500000000    -0.0179333  
S83      S      0.530410000000     0.839450000000     0.300850000000    -0.0179798  
S84      S      0.964340000000     0.657080000000     0.300810000000    -0.0185441  
S85      S      0.840440000000     0.696500000000     0.538610000000    -0.0173584  
S86      S      0.655760000000     0.802500000000     0.026280000000    -0.0163886  
S87      S      0.796460000000     0.839440000000     0.954460000000    -0.0214093  
S88      S      0.691780000000     0.655630000000     0.028990000000    -0.0118589  
S89      S      0.797560000000     0.535290000000     0.839350000000    -0.0129109  
S90      S      0.787840000000     0.945910000000     0.590070000000    -0.0175881  
S91      S      0.940590000000     0.716740000000     0.905280000000    -0.018826   
S92      S      0.050890000000     0.785700000000     0.589150000000    -0.0154989  
S93      S      0.588550000000     0.551980000000     0.781010000000    -0.0133318  
S94      S      0.838530000000     0.962470000000     0.801500000000    -0.0182064  
S95      S      0.530410000000     0.839450000000     0.800850000000    -0.0183839  
S96      S      0.964340000000     0.657080000000     0.800810000000    -0.0188778  
V1       V      0.496400000000     0.998050000000     0.220410000000     1.35289    
V2       V      0.496990000000     0.498040000000     0.277170000000     1.40395    
V3       V      0.026230000000     0.248790000000     0.247990000000     1.40566    
V4       V      0.469280000000     0.247110000000     0.246320000000     1.39708    
V5       V      0.246200000000     0.470240000000     0.248150000000     1.3874     
V6       V      0.247040000000     0.026970000000     0.246700000000     1.41209    
V7       V      0.220000000000     0.997070000000     0.498760000000     1.38227    
V8       V      0.276910000000     0.997920000000     0.996290000000     1.36218    
V9       V      0.997790000000     0.219270000000     0.997220000000     1.34524    
V10      V      0.998380000000     0.276270000000     0.497040000000     1.3959     
V11      V      0.249860000000     0.246870000000     0.469400000000     1.39426    
V12      V      0.246460000000     0.248050000000     0.026310000000     1.4092     
V13      V      0.496400000000     0.998050000000     0.720410000000     1.35225    
V14      V      0.496990000000     0.498040000000     0.777170000000     1.40376    
V15      V      0.026230000000     0.248790000000     0.747990000000     1.40571    
V16      V      0.469280000000     0.247110000000     0.746320000000     1.39672    
V17      V      0.246200000000     0.470240000000     0.748140000000     1.38737    
V18      V      0.247040000000     0.026970000000     0.746700000000     1.41204    
V19      V      0.220000000000     0.997070000000     0.998760000000     1.36234    
V20      V      0.276910000000     0.997920000000     0.496290000000     1.37028    
V21      V      0.997790000000     0.219270000000     0.497220000000     1.3631     
V22      V      0.998380000000     0.276270000000     0.997040000000     1.38911    
V23      V      0.249860000000     0.246870000000     0.969400000000     1.38403    
V24      V      0.246460000000     0.248050000000     0.526320000000     1.40232    
V25      V      0.496400000000     0.498050000000     0.220410000000     1.38128    
V26      V      0.496990000000     0.998050000000     0.277170000000     1.37497    
V27      V      0.026230000000     0.748780000000     0.247990000000     1.40556    
V28      V      0.469280000000     0.747110000000     0.246320000000     1.39735    
V29      V      0.246200000000     0.970240000000     0.248150000000     1.37214    
V30      V      0.247040000000     0.526970000000     0.246700000000     1.40114    
V31      V      0.220000000000     0.497070000000     0.498760000000     1.39499    
V32      V      0.276910000000     0.497920000000     0.996290000000     1.39282    
V33      V      0.997790000000     0.719270000000     0.997220000000     1.34433    
V34      V      0.998380000000     0.776270000000     0.497040000000     1.3956     
V35      V      0.249860000000     0.746860000000     0.469400000000     1.39424    
V36      V      0.246460000000     0.748050000000     0.026310000000     1.4092     
V37      V      0.496400000000     0.498050000000     0.720410000000     1.38071    
V38      V      0.496990000000     0.998050000000     0.777170000000     1.37475    
V39      V      0.026230000000     0.748780000000     0.747990000000     1.40561    
V40      V      0.469280000000     0.747110000000     0.746320000000     1.397      
V41      V      0.246200000000     0.970240000000     0.748140000000     1.37208    
V42      V      0.247040000000     0.526970000000     0.746700000000     1.40107    
V43      V      0.220000000000     0.497070000000     0.998760000000     1.37505    
V44      V      0.276910000000     0.497920000000     0.496290000000     1.40094    
V45      V      0.997790000000     0.719270000000     0.497220000000     1.36226    
V46      V      0.998380000000     0.776270000000     0.997040000000     1.3888     
V47      V      0.249860000000     0.746860000000     0.969400000000     1.38398    
V48      V      0.246460000000     0.748050000000     0.526320000000     1.40229    
V49      V      0.996400000000     0.998050000000     0.220410000000     1.32664    
V50      V      0.996990000000     0.498040000000     0.277170000000     1.37705    
V51      V      0.526230000000     0.248790000000     0.247990000000     1.39824    
V52      V      0.969280000000     0.247110000000     0.246320000000     1.37974    
V53      V      0.746200000000     0.470240000000     0.248150000000     1.38734    
V54      V      0.747040000000     0.026970000000     0.246700000000     1.41207    
V55      V      0.720000000000     0.997070000000     0.498760000000     1.38142    
V56      V      0.776910000000     0.997920000000     0.996290000000     1.36185    
V57      V      0.497790000000     0.219270000000     0.997220000000     1.37061    
V58      V      0.498380000000     0.276270000000     0.497040000000     1.4061     
V59      V      0.749860000000     0.246870000000     0.469400000000     1.39422    
V60      V      0.746460000000     0.248050000000     0.026310000000     1.40921    
V61      V      0.996400000000     0.998050000000     0.720410000000     1.32596    
V62      V      0.996990000000     0.498040000000     0.777170000000     1.37684    
V63      V      0.526230000000     0.248790000000     0.747990000000     1.39828    
V64      V      0.969280000000     0.247110000000     0.746320000000     1.37936    
V65      V      0.746200000000     0.470240000000     0.748140000000     1.38731    
V66      V      0.747040000000     0.026970000000     0.746700000000     1.41202    
V67      V      0.720000000000     0.997070000000     0.998760000000     1.36145    
V68      V      0.776910000000     0.997920000000     0.496290000000     1.36994    
V69      V      0.497790000000     0.219270000000     0.497220000000     1.38858    
V70      V      0.498380000000     0.276270000000     0.997040000000     1.39927    
V71      V      0.749860000000     0.246870000000     0.969400000000     1.38398    
V72      V      0.746460000000     0.248050000000     0.526320000000     1.40231    
V73      V      0.996400000000     0.498050000000     0.220410000000     1.35488    
V74      V      0.996990000000     0.998050000000     0.277170000000     1.34823    
V75      V      0.526230000000     0.748780000000     0.247990000000     1.39813    
V76      V      0.969280000000     0.747110000000     0.246320000000     1.37999    
V77      V      0.746200000000     0.970240000000     0.248150000000     1.37207    
V78      V      0.747040000000     0.526970000000     0.246700000000     1.4011     
V79      V      0.720000000000     0.497070000000     0.498760000000     1.39415    
V80      V      0.776910000000     0.497920000000     0.996290000000     1.39249    
V81      V      0.497790000000     0.719270000000     0.997220000000     1.36974    
V82      V      0.498380000000     0.776270000000     0.497040000000     1.40579    
V83      V      0.749860000000     0.746860000000     0.469400000000     1.39421    
V84      V      0.746460000000     0.748050000000     0.026310000000     1.40921    
V85      V      0.996400000000     0.498050000000     0.720410000000     1.35427    
V86      V      0.996990000000     0.998050000000     0.777170000000     1.34799    
V87      V      0.526230000000     0.748780000000     0.747990000000     1.39817    
V88      V      0.969280000000     0.747110000000     0.746320000000     1.37962    
V89      V      0.746200000000     0.970240000000     0.748140000000     1.37201    
V90      V      0.747040000000     0.526970000000     0.746700000000     1.40103    
V91      V      0.720000000000     0.497070000000     0.998760000000     1.37418    
V92      V      0.776910000000     0.497920000000     0.496290000000     1.40061    
V93      V      0.497790000000     0.719270000000     0.497220000000     1.38777    
V94      V      0.498380000000     0.776270000000     0.997040000000     1.39895    
V95      V      0.749860000000     0.746860000000     0.969400000000     1.38393    
V96      V      0.746460000000     0.748050000000     0.526320000000     1.40228    


