data_structure

_audit_creation_method RASPA-1.0
_audit_creation_date 2023-5-19
_audit_author_name 'Poobodin Mano'

_cell_length_a    42.2742
_cell_length_b    42.2645
_cell_length_c    42.2594
_cell_angle_alpha 90
_cell_angle_beta  90
_cell_angle_gamma 90
_cell_volume      75504.8

_symmetry_cell_setting          triclinic
_symmetry_space_group_name_Hall 'P 1'
_symmetry_space_group_name_H-M  'P 1'
_symmetry_Int_Tables_number     1

_symmetry_equiv_pos_as_xyz 'x,y,z'

loop_
_atom_site_label
_atom_site_type_symbol
_atom_site_fract_x
_atom_site_fract_y
_atom_site_fract_z
_atom_site_charge
C1       C      0.505310000000     0.064530000000     0.252500000000     0.482415   
C2       C      0.503030000000     0.444920000000     0.252280000000     0.48146    
C3       C      0.443740000000     0.505580000000     0.251810000000     0.475021   
C4       C      0.063450000000     0.503130000000     0.253300000000     0.478332   
C5       C      0.502070000000     0.314600000000     0.252670000000     0.475445   
C6       C      0.504590000000     0.194720000000     0.253440000000     0.476444   
C7       C      0.003670000000     0.254510000000     0.193190000000     0.467745   
C8       C      0.002680000000     0.254630000000     0.313080000000     0.468627   
C9       C      0.313540000000     0.003290000000     0.254460000000     0.474888   
C10      C      0.193820000000     0.003530000000     0.253600000000     0.46581    
C11      C      0.254270000000     0.502270000000     0.193780000000     0.474594   
C12      C      0.252340000000     0.504620000000     0.313580000000     0.480278   
C13      C      0.254190000000     0.001870000000     0.063560000000     0.481848   
C14      C      0.252170000000     0.005370000000     0.443890000000     0.474222   
C15      C      0.252550000000     0.063940000000     0.505530000000     0.473845   
C16      C      0.254140000000     0.444110000000     0.502500000000     0.473269   
C17      C      0.005330000000     0.253830000000     0.062890000000     0.481958   
C18      C      0.001480000000     0.254650000000     0.443290000000     0.479871   
C19      C      0.063300000000     0.252560000000     0.501070000000     0.478963   
C20      C      0.443580000000     0.255790000000     0.504460000000     0.472707   
C21      C      0.254270000000     0.194270000000     0.505000000000     0.481719   
C22      C      0.254140000000     0.313730000000     0.503140000000     0.479071   
C23      C      0.193610000000     0.253240000000     0.002880000000     0.464192   
C24      C      0.313180000000     0.255620000000     0.004980000000     0.46679    
C25      C      0.394490000000     0.232670000000     0.490590000000     0.0257803  
C26      C      0.395300000000     0.280820000000     0.018830000000    -0.0127628  
C27      C      0.361590000000     0.233620000000     0.489780000000     0.0326145  
C28      C      0.362000000000     0.280990000000     0.019950000000     0.142075   
C29      C      0.144390000000     0.236720000000     0.024470000000     0.0267363  
C30      C      0.145570000000     0.267920000000     0.478190000000    -0.0124256  
C31      C      0.111440000000     0.235160000000     0.022560000000     0.0255529  
C32      C      0.112390000000     0.268310000000     0.477240000000     0.146872   
C33      C      0.231030000000     0.395140000000     0.016980000000     0.0245626  
C34      C      0.278970000000     0.395720000000     0.488390000000    -0.0117311  
C35      C      0.232140000000     0.362230000000     0.018260000000     0.0325247  
C36      C      0.279320000000     0.362450000000     0.487790000000     0.14465    
C37      C      0.228790000000     0.113200000000     0.992430000000     0.0323145  
C38      C      0.277270000000     0.112060000000     0.020110000000    -0.0127183  
C39      C      0.230550000000     0.146150000000     0.990910000000     0.0408579  
C40      C      0.278360000000     0.145260000000     0.020380000000     0.144929   
C41      C      0.273410000000     0.022470000000     0.394870000000     0.0253609  
C42      C      0.228890000000     0.488790000000     0.395660000000    -0.0111567  
C43      C      0.271980000000     0.023520000000     0.361910000000     0.0347875  
C44      C      0.228760000000     0.487680000000     0.362420000000     0.147219   
C45      C      0.269870000000     0.024600000000     0.144710000000     0.024838   
C46      C      0.239510000000     0.477720000000     0.145540000000    -0.0115071  
C47      C      0.271050000000     0.023250000000     0.111760000000     0.0356351  
C48      C      0.238630000000     0.477390000000     0.112300000000     0.146845   
C49      C      0.024170000000     0.271070000000     0.362140000000     0.0254921  
C50      C      0.479100000000     0.238120000000     0.361090000000    -0.0105879  
C51      C      0.022170000000     0.272600000000     0.395040000000     0.0351092  
C52      C      0.478430000000     0.237390000000     0.394320000000     0.147066   
C53      C      0.480210000000     0.240940000000     0.143940000000     0.0265622  
C54      C      0.029200000000     0.267730000000     0.145060000000    -0.0125071  
C55      C      0.481900000000     0.239360000000     0.111000000000     0.0356309  
C56      C      0.030180000000     0.268050000000     0.111850000000     0.145698   
C57      C      0.144810000000     0.026320000000     0.238540000000     0.0247342  
C58      C      0.145530000000     0.479790000000     0.269380000000    -0.0116856  
C59      C      0.111890000000     0.024830000000     0.237230000000     0.0344222  
C60      C      0.112290000000     0.479290000000     0.270070000000     0.144087   
C61      C      0.394610000000     0.489890000000     0.229310000000     0.0263537  
C62      C      0.395640000000     0.020280000000     0.276160000000    -0.0124092  
C63      C      0.361690000000     0.487650000000     0.231600000000     0.0354191  
C64      C      0.362530000000     0.019930000000     0.277580000000     0.146245   
C65      C      0.977720000000     0.363790000000     0.265130000000     0.031252   
C66      C      0.026870000000     0.362760000000     0.238640000000    -0.012298   
C67      C      0.979260000000     0.396800000000     0.266450000000     0.0407563  
C68      C      0.027690000000     0.395930000000     0.237990000000     0.14412    
C69      C      0.482450000000     0.145560000000     0.268710000000     0.0272385  
C70      C      0.029020000000     0.146750000000     0.237900000000    -0.0118605  
C71      C      0.483830000000     0.112620000000     0.269540000000     0.0363441  
C72      C      0.029060000000     0.113540000000     0.236240000000     0.14634    
C73      C      0.505310000000     0.064530000000     0.752500000000     0.482442   
C74      C      0.503030000000     0.444920000000     0.752280000000     0.481485   
C75      C      0.443740000000     0.505580000000     0.751810000000     0.47505    
C76      C      0.063450000000     0.503130000000     0.753310000000     0.478354   
C77      C      0.502070000000     0.314600000000     0.752670000000     0.47547    
C78      C      0.504590000000     0.194720000000     0.753440000000     0.476471   
C79      C      0.003670000000     0.254510000000     0.693190000000     0.467766   
C80      C      0.002680000000     0.254630000000     0.813080000000     0.468714   
C81      C      0.313540000000     0.003290000000     0.754460000000     0.474902   
C82      C      0.193820000000     0.003530000000     0.753600000000     0.465831   
C83      C      0.254270000000     0.502270000000     0.693780000000     0.474645   
C84      C      0.252340000000     0.504620000000     0.813570000000     0.48038    
C85      C      0.254190000000     0.001870000000     0.563560000000     0.482466   
C86      C      0.252170000000     0.005370000000     0.943890000000     0.473168   
C87      C      0.252550000000     0.063940000000     0.005530000000     0.472607   
C88      C      0.254140000000     0.444110000000     0.002500000000     0.472003   
C89      C      0.005330000000     0.253830000000     0.562890000000     0.482582   
C90      C      0.001480000000     0.254650000000     0.943290000000     0.478644   
C91      C      0.063300000000     0.252560000000     0.001070000000     0.471419   
C92      C      0.443580000000     0.255790000000     0.004460000000     0.471393   
C93      C      0.254270000000     0.194270000000     0.005000000000     0.472765   
C94      C      0.254140000000     0.313730000000     0.003140000000     0.470142   
C95      C      0.193610000000     0.253240000000     0.502880000000     0.472919   
C96      C      0.313180000000     0.255620000000     0.504980000000     0.475789   
C97      C      0.394490000000     0.232670000000     0.990590000000     0.0319229  
C98      C      0.395300000000     0.280820000000     0.518830000000    -0.0118059  
C99      C      0.361590000000     0.233620000000     0.989780000000     0.0378825  
C100     C      0.362000000000     0.280990000000     0.519950000000     0.143792   
C101     C      0.144390000000     0.236720000000     0.524470000000     0.0256667  
C102     C      0.145570000000     0.267920000000     0.978190000000    -0.00508985 
C103     C      0.111440000000     0.235160000000     0.522560000000     0.0333248  
C104     C      0.112390000000     0.268310000000     0.977240000000     0.146767   
C105     C      0.231030000000     0.395140000000     0.516990000000     0.0255547  
C106     C      0.278970000000     0.395720000000     0.988390000000    -0.00563829 
C107     C      0.232140000000     0.362230000000     0.518260000000     0.0339998  
C108     C      0.279320000000     0.362450000000     0.987790000000     0.149791   
C109     C      0.228790000000     0.113200000000     0.492430000000     0.0261346  
C110     C      0.277270000000     0.112060000000     0.520110000000    -0.0117815  
C111     C      0.230550000000     0.146150000000     0.490910000000     0.0355749  
C112     C      0.278360000000     0.145260000000     0.520380000000     0.146517   
C113     C      0.273410000000     0.022470000000     0.894870000000     0.0256222  
C114     C      0.228890000000     0.488790000000     0.895660000000    -0.0109463  
C115     C      0.271980000000     0.023520000000     0.861910000000     0.0350422  
C116     C      0.228760000000     0.487680000000     0.862420000000     0.147556   
C117     C      0.269870000000     0.024600000000     0.644710000000     0.0248897  
C118     C      0.239510000000     0.477720000000     0.645540000000    -0.0114872  
C119     C      0.271050000000     0.023250000000     0.611760000000     0.0357957  
C120     C      0.238630000000     0.477390000000     0.612300000000     0.147035   
C121     C      0.024170000000     0.271070000000     0.862140000000     0.0256885  
C122     C      0.479100000000     0.238120000000     0.861090000000    -0.0105038  
C123     C      0.022170000000     0.272600000000     0.895040000000     0.0354103  
C124     C      0.478430000000     0.237390000000     0.894320000000     0.147595   
C125     C      0.480210000000     0.240940000000     0.643940000000     0.0266068  
C126     C      0.029200000000     0.267730000000     0.645060000000    -0.0125106  
C127     C      0.481900000000     0.239360000000     0.611000000000     0.0357617  
C128     C      0.030180000000     0.268050000000     0.611850000000     0.145927   
C129     C      0.144810000000     0.026320000000     0.738540000000     0.0247867  
C130     C      0.145530000000     0.479790000000     0.769380000000    -0.0116479  
C131     C      0.111890000000     0.024830000000     0.737230000000     0.0345066  
C132     C      0.112290000000     0.479290000000     0.770070000000     0.144216   
C133     C      0.394610000000     0.489890000000     0.729310000000     0.0263953  
C134     C      0.395640000000     0.020280000000     0.776160000000    -0.0123714  
C135     C      0.361690000000     0.487650000000     0.731600000000     0.0354701  
C136     C      0.362530000000     0.019930000000     0.777580000000     0.146378   
C137     C      0.977720000000     0.363790000000     0.765130000000     0.0313074  
C138     C      0.026870000000     0.362760000000     0.738640000000    -0.0122683  
C139     C      0.979260000000     0.396800000000     0.766450000000     0.0408395  
C140     C      0.027690000000     0.395930000000     0.737990000000     0.144237   
C141     C      0.482450000000     0.145560000000     0.768710000000     0.0273124  
C142     C      0.029020000000     0.146750000000     0.737900000000    -0.0118105  
C143     C      0.483830000000     0.112620000000     0.769540000000     0.036444   
C144     C      0.029060000000     0.113540000000     0.736240000000     0.14644    
C145     C      0.505310000000     0.564530000000     0.252500000000     0.482962   
C146     C      0.503030000000     0.944920000000     0.252280000000     0.480348   
C147     C      0.443740000000     0.005580000000     0.251810000000     0.473915   
C148     C      0.063450000000     0.003140000000     0.253300000000     0.477016   
C149     C      0.502070000000     0.814600000000     0.252670000000     0.475545   
C150     C      0.504590000000     0.694720000000     0.253440000000     0.476413   
C151     C      0.003670000000     0.754510000000     0.193190000000     0.467792   
C152     C      0.002680000000     0.754640000000     0.313080000000     0.468672   
C153     C      0.313540000000     0.503290000000     0.254460000000     0.482709   
C154     C      0.193820000000     0.503530000000     0.253600000000     0.473451   
C155     C      0.254270000000     0.002270000000     0.193780000000     0.467035   
C156     C      0.252340000000     0.004620000000     0.313580000000     0.472366   
C157     C      0.254190000000     0.501870000000     0.063560000000     0.483107   
C158     C      0.252170000000     0.505370000000     0.443890000000     0.475324   
C159     C      0.252550000000     0.563940000000     0.505530000000     0.474402   
C160     C      0.254140000000     0.944110000000     0.502500000000     0.47227    
C161     C      0.005330000000     0.753830000000     0.062890000000     0.481944   
C162     C      0.001480000000     0.754650000000     0.443290000000     0.479857   
C163     C      0.063300000000     0.752560000000     0.501070000000     0.478945   
C164     C      0.443580000000     0.755790000000     0.504460000000     0.472707   
C165     C      0.254270000000     0.694270000000     0.505000000000     0.481719   
C166     C      0.254140000000     0.813730000000     0.503140000000     0.479102   
C167     C      0.193610000000     0.753240000000     0.002880000000     0.464224   
C168     C      0.313180000000     0.755620000000     0.004980000000     0.466806   
C169     C      0.394490000000     0.732670000000     0.490590000000     0.0258142  
C170     C      0.395300000000     0.780820000000     0.018830000000    -0.012731   
C171     C      0.361590000000     0.733620000000     0.489780000000     0.0326494  
C172     C      0.362000000000     0.780990000000     0.019950000000     0.14219    
C173     C      0.144390000000     0.736720000000     0.024470000000     0.0267748  
C174     C      0.145570000000     0.767920000000     0.478190000000    -0.0124103  
C175     C      0.111440000000     0.735160000000     0.022560000000     0.0256261  
C176     C      0.112390000000     0.768310000000     0.477240000000     0.147026   
C177     C      0.231030000000     0.895130000000     0.016980000000     0.024702   
C178     C      0.278970000000     0.895720000000     0.488390000000    -0.0115441  
C179     C      0.232140000000     0.862230000000     0.018260000000     0.03272    
C180     C      0.279320000000     0.862450000000     0.487790000000     0.144909   
C181     C      0.228790000000     0.613200000000     0.992430000000     0.0324072  
C182     C      0.277270000000     0.612060000000     0.020110000000    -0.0126506  
C183     C      0.230550000000     0.646160000000     0.990910000000     0.040936   
C184     C      0.278360000000     0.645260000000     0.020380000000     0.144993   
C185     C      0.273410000000     0.522470000000     0.394870000000     0.0261976  
C186     C      0.228890000000     0.988800000000     0.395660000000    -0.00566117 
C187     C      0.271980000000     0.523520000000     0.361910000000     0.0360314  
C188     C      0.228760000000     0.987680000000     0.362420000000     0.15154    
C189     C      0.269870000000     0.524600000000     0.144710000000     0.0260663  
C190     C      0.239510000000     0.977720000000     0.145540000000    -0.00686379 
C191     C      0.271050000000     0.523250000000     0.111760000000     0.0364684  
C192     C      0.238630000000     0.977390000000     0.112300000000     0.151844   
C193     C      0.024170000000     0.771070000000     0.362140000000     0.0255476  
C194     C      0.479100000000     0.738120000000     0.361090000000    -0.0105613  
C195     C      0.022170000000     0.772600000000     0.395040000000     0.0352032  
C196     C      0.478430000000     0.737390000000     0.394320000000     0.147158   
C197     C      0.480210000000     0.740940000000     0.143940000000     0.0266759  
C198     C      0.029200000000     0.767730000000     0.145060000000    -0.0124959  
C199     C      0.481900000000     0.739360000000     0.111000000000     0.0356737  
C200     C      0.030180000000     0.768050000000     0.111850000000     0.145829   
C201     C      0.144810000000     0.526320000000     0.238540000000     0.0259469  
C202     C      0.145530000000     0.979790000000     0.269380000000    -0.00712171 
C203     C      0.111890000000     0.524830000000     0.237230000000     0.0353379  
C204     C      0.112290000000     0.979290000000     0.270070000000     0.148918   
C205     C      0.394610000000     0.989890000000     0.229310000000     0.0318135  
C206     C      0.395640000000     0.520280000000     0.276160000000    -0.0115952  
C207     C      0.361690000000     0.987650000000     0.231600000000     0.0401093  
C208     C      0.362530000000     0.519930000000     0.277580000000     0.147498   
C209     C      0.977720000000     0.863790000000     0.265130000000     0.0314497  
C210     C      0.026870000000     0.862760000000     0.238640000000    -0.0122307  
C211     C      0.979260000000     0.896800000000     0.266450000000     0.0409496  
C212     C      0.027690000000     0.895930000000     0.237990000000     0.144523   
C213     C      0.482450000000     0.645560000000     0.268710000000     0.0272759  
C214     C      0.029020000000     0.646750000000     0.237900000000    -0.0118456  
C215     C      0.483830000000     0.612620000000     0.269540000000     0.0364859  
C216     C      0.029060000000     0.613540000000     0.236240000000     0.146512   
C217     C      0.505310000000     0.564530000000     0.752500000000     0.482989   
C218     C      0.503030000000     0.944920000000     0.752280000000     0.480374   
C219     C      0.443740000000     0.005580000000     0.751810000000     0.473946   
C220     C      0.063450000000     0.003140000000     0.753310000000     0.47704    
C221     C      0.502070000000     0.814600000000     0.752670000000     0.47557    
C222     C      0.504590000000     0.694720000000     0.753440000000     0.476439   
C223     C      0.003670000000     0.754510000000     0.693190000000     0.467814   
C224     C      0.002680000000     0.754640000000     0.813080000000     0.468758   
C225     C      0.313540000000     0.503290000000     0.754460000000     0.482705   
C226     C      0.193820000000     0.503530000000     0.753600000000     0.473453   
C227     C      0.254270000000     0.002270000000     0.693780000000     0.467098   
C228     C      0.252340000000     0.004620000000     0.813570000000     0.472489   
C229     C      0.254190000000     0.501870000000     0.563560000000     0.483727   
C230     C      0.252170000000     0.505370000000     0.943890000000     0.474268   
C231     C      0.252550000000     0.563940000000     0.005530000000     0.473162   
C232     C      0.254140000000     0.944110000000     0.002500000000     0.471006   
C233     C      0.005330000000     0.753830000000     0.562890000000     0.482567   
C234     C      0.001480000000     0.754650000000     0.943290000000     0.478632   
C235     C      0.063300000000     0.752560000000     0.001070000000     0.471416   
C236     C      0.443580000000     0.755790000000     0.004460000000     0.471395   
C237     C      0.254270000000     0.694270000000     0.005000000000     0.472778   
C238     C      0.254140000000     0.813730000000     0.003140000000     0.470197   
C239     C      0.193610000000     0.753240000000     0.502880000000     0.472933   
C240     C      0.313180000000     0.755620000000     0.504980000000     0.475786   
C241     C      0.394490000000     0.732670000000     0.990590000000     0.031942   
C242     C      0.395300000000     0.780820000000     0.518830000000    -0.0117758  
C243     C      0.361590000000     0.733620000000     0.989780000000     0.0379045  
C244     C      0.362000000000     0.780990000000     0.519950000000     0.143904   
C245     C      0.144390000000     0.736720000000     0.524470000000     0.0257087  
C246     C      0.145570000000     0.767920000000     0.978190000000    -0.00509218 
C247     C      0.111440000000     0.735160000000     0.522560000000     0.0333814  
C248     C      0.112390000000     0.768310000000     0.977240000000     0.146919   
C249     C      0.231030000000     0.895130000000     0.516990000000     0.025692   
C250     C      0.278970000000     0.895720000000     0.988390000000    -0.00548298 
C251     C      0.232140000000     0.862230000000     0.518260000000     0.0341895  
C252     C      0.279320000000     0.862450000000     0.987790000000     0.150031   
C253     C      0.228790000000     0.613200000000     0.492430000000     0.0262299  
C254     C      0.277270000000     0.612060000000     0.520110000000    -0.0117137  
C255     C      0.230550000000     0.646160000000     0.490910000000     0.035658   
C256     C      0.278360000000     0.645260000000     0.520380000000     0.146579   
C257     C      0.273410000000     0.522470000000     0.894870000000     0.0264566  
C258     C      0.228890000000     0.988800000000     0.895660000000    -0.0054818  
C259     C      0.271980000000     0.523520000000     0.861910000000     0.0362815  
C260     C      0.228760000000     0.987680000000     0.862420000000     0.151859   
C261     C      0.269870000000     0.524600000000     0.644710000000     0.0261172  
C262     C      0.239510000000     0.977720000000     0.645540000000    -0.00685227 
C263     C      0.271050000000     0.523250000000     0.611760000000     0.0366289  
C264     C      0.238630000000     0.977390000000     0.612300000000     0.15203    
C265     C      0.024170000000     0.771070000000     0.862140000000     0.0257432  
C266     C      0.479100000000     0.738120000000     0.861090000000    -0.0104776  
C267     C      0.022170000000     0.772600000000     0.895040000000     0.0355032  
C268     C      0.478430000000     0.737390000000     0.894320000000     0.147685   
C269     C      0.480210000000     0.740940000000     0.643940000000     0.0267204  
C270     C      0.029200000000     0.767730000000     0.645060000000    -0.0124994  
C271     C      0.481900000000     0.739360000000     0.611000000000     0.0358043  
C272     C      0.030180000000     0.768050000000     0.611850000000     0.146058   
C273     C      0.144810000000     0.526320000000     0.738540000000     0.025997   
C274     C      0.145530000000     0.979790000000     0.769380000000    -0.00709682 
C275     C      0.111890000000     0.524830000000     0.737230000000     0.035421   
C276     C      0.112290000000     0.979290000000     0.770070000000     0.149033   
C277     C      0.394610000000     0.989890000000     0.729310000000     0.0318402  
C278     C      0.395640000000     0.520280000000     0.776160000000    -0.0115588  
C279     C      0.361690000000     0.987650000000     0.731600000000     0.0401473  
C280     C      0.362530000000     0.519930000000     0.777580000000     0.147628   
C281     C      0.977720000000     0.863790000000     0.765130000000     0.0315042  
C282     C      0.026870000000     0.862760000000     0.738640000000    -0.0122014  
C283     C      0.979260000000     0.896800000000     0.766450000000     0.0410318  
C284     C      0.027690000000     0.895930000000     0.737990000000     0.144638   
C285     C      0.482450000000     0.645560000000     0.768710000000     0.0273497  
C286     C      0.029020000000     0.646750000000     0.737900000000    -0.0117957  
C287     C      0.483830000000     0.612620000000     0.769540000000     0.0365855  
C288     C      0.029060000000     0.613540000000     0.736240000000     0.146612   
C289     C      0.005300000000     0.064530000000     0.252500000000     0.481306   
C290     C      0.003040000000     0.444920000000     0.252280000000     0.480319   
C291     C      0.943740000000     0.505580000000     0.251810000000     0.474044   
C292     C      0.563450000000     0.503130000000     0.253300000000     0.478864   
C293     C      0.002070000000     0.314600000000     0.252670000000     0.467516   
C294     C      0.004590000000     0.194720000000     0.253440000000     0.468386   
C295     C      0.503670000000     0.254510000000     0.193190000000     0.475658   
C296     C      0.502670000000     0.254630000000     0.313080000000     0.476693   
C297     C      0.813540000000     0.003290000000     0.254460000000     0.474958   
C298     C      0.693810000000     0.003530000000     0.253600000000     0.465744   
C299     C      0.754270000000     0.502270000000     0.193780000000     0.474616   
C300     C      0.752340000000     0.504620000000     0.313580000000     0.480285   
C301     C      0.754180000000     0.001870000000     0.063560000000     0.481465   
C302     C      0.752180000000     0.005370000000     0.443890000000     0.47417    
C303     C      0.752550000000     0.063940000000     0.505530000000     0.473784   
C304     C      0.754140000000     0.444110000000     0.502500000000     0.473209   
C305     C      0.505330000000     0.253830000000     0.062890000000     0.483075   
C306     C      0.501480000000     0.254650000000     0.443290000000     0.48116    
C307     C      0.563300000000     0.252560000000     0.501070000000     0.479373   
C308     C      0.943580000000     0.255790000000     0.504460000000     0.471686   
C309     C      0.754270000000     0.194270000000     0.505000000000     0.481702   
C310     C      0.754140000000     0.313730000000     0.503140000000     0.47906    
C311     C      0.693610000000     0.253240000000     0.002880000000     0.464154   
C312     C      0.813180000000     0.255620000000     0.004980000000     0.466939   
C313     C      0.894490000000     0.232670000000     0.490590000000     0.0259714  
C314     C      0.895290000000     0.280820000000     0.018830000000    -0.0126257  
C315     C      0.861590000000     0.233620000000     0.489780000000     0.0328087  
C316     C      0.862000000000     0.280990000000     0.019950000000     0.142399   
C317     C      0.644390000000     0.236720000000     0.024470000000     0.0267641  
C318     C      0.645570000000     0.267920000000     0.478190000000    -0.0124214  
C319     C      0.611440000000     0.235160000000     0.022560000000     0.0256801  
C320     C      0.612390000000     0.268310000000     0.477240000000     0.147033   
C321     C      0.731030000000     0.395140000000     0.016980000000     0.0245928  
C322     C      0.778970000000     0.395720000000     0.488390000000    -0.0117014  
C323     C      0.732140000000     0.362230000000     0.018260000000     0.0325667  
C324     C      0.779320000000     0.362450000000     0.487790000000     0.144758   
C325     C      0.728790000000     0.113200000000     0.992430000000     0.0323302  
C326     C      0.777270000000     0.112060000000     0.020110000000    -0.0126955  
C327     C      0.730550000000     0.146150000000     0.990910000000     0.0408887  
C328     C      0.778360000000     0.145260000000     0.020380000000     0.145043   
C329     C      0.773400000000     0.022470000000     0.394870000000     0.0254971  
C330     C      0.728890000000     0.488790000000     0.395660000000    -0.0111102  
C331     C      0.771980000000     0.023520000000     0.361910000000     0.03482    
C332     C      0.728760000000     0.487680000000     0.362420000000     0.147277   
C333     C      0.769870000000     0.024600000000     0.144710000000     0.0248974  
C334     C      0.739510000000     0.477720000000     0.145540000000    -0.0114525  
C335     C      0.771050000000     0.023250000000     0.111760000000     0.035737   
C336     C      0.738620000000     0.477390000000     0.112300000000     0.146906   
C337     C      0.524170000000     0.271070000000     0.362140000000     0.0267797  
C338     C      0.979110000000     0.238120000000     0.361090000000    -0.00576474 
C339     C      0.522180000000     0.272600000000     0.395040000000     0.0358927  
C340     C      0.978430000000     0.237390000000     0.394320000000     0.152061   
C341     C      0.980210000000     0.240940000000     0.143940000000     0.0312877  
C342     C      0.529200000000     0.267730000000     0.145060000000    -0.0113619  
C343     C      0.981900000000     0.239360000000     0.111000000000     0.0411393  
C344     C      0.530180000000     0.268050000000     0.111850000000     0.146422   
C345     C      0.644810000000     0.026320000000     0.238540000000     0.0247784  
C346     C      0.645530000000     0.479790000000     0.269380000000    -0.0116658  
C347     C      0.611890000000     0.024830000000     0.237230000000     0.0345334  
C348     C      0.612290000000     0.479290000000     0.270070000000     0.144223   
C349     C      0.894610000000     0.489890000000     0.229310000000     0.0266086  
C350     C      0.895640000000     0.020280000000     0.276160000000    -0.012217   
C351     C      0.861690000000     0.487650000000     0.231600000000     0.0356591  
C352     C      0.862530000000     0.019930000000     0.277580000000     0.146525   
C353     C      0.477720000000     0.363790000000     0.265130000000     0.0265457  
C354     C      0.526870000000     0.362760000000     0.238640000000    -0.011112   
C355     C      0.479260000000     0.396800000000     0.266450000000     0.0352354  
C356     C      0.527690000000     0.395930000000     0.237990000000     0.144841   
C357     C      0.982450000000     0.145560000000     0.268710000000     0.0318741  
C358     C      0.529020000000     0.146750000000     0.237900000000    -0.0106107  
C359     C      0.983830000000     0.112620000000     0.269540000000     0.0418081  
C360     C      0.529060000000     0.113540000000     0.236240000000     0.147071   
C361     C      0.005300000000     0.064530000000     0.752500000000     0.481336   
C362     C      0.003040000000     0.444920000000     0.752280000000     0.480345   
C363     C      0.943740000000     0.505580000000     0.751810000000     0.474075   
C364     C      0.563450000000     0.503130000000     0.753310000000     0.478885   
C365     C      0.002070000000     0.314600000000     0.752670000000     0.467561   
C366     C      0.004590000000     0.194720000000     0.753440000000     0.468432   
C367     C      0.503670000000     0.254510000000     0.693190000000     0.475665   
C368     C      0.502670000000     0.254630000000     0.813080000000     0.476754   
C369     C      0.813540000000     0.003290000000     0.754460000000     0.474972   
C370     C      0.693810000000     0.003530000000     0.753600000000     0.465765   
C371     C      0.754270000000     0.502270000000     0.693780000000     0.474667   
C372     C      0.752340000000     0.504620000000     0.813570000000     0.480388   
C373     C      0.754180000000     0.001870000000     0.563560000000     0.482082   
C374     C      0.752180000000     0.005370000000     0.943890000000     0.473119   
C375     C      0.752550000000     0.063940000000     0.005530000000     0.472548   
C376     C      0.754140000000     0.444110000000     0.002500000000     0.471945   
C377     C      0.505330000000     0.253830000000     0.562890000000     0.4837     
C378     C      0.501480000000     0.254650000000     0.943290000000     0.479929   
C379     C      0.563300000000     0.252560000000     0.001070000000     0.471837   
C380     C      0.943580000000     0.255790000000     0.004460000000     0.470374   
C381     C      0.754270000000     0.194270000000     0.005000000000     0.472768   
C382     C      0.754140000000     0.313730000000     0.003140000000     0.470153   
C383     C      0.693610000000     0.253240000000     0.502880000000     0.472866   
C384     C      0.813180000000     0.255620000000     0.504980000000     0.475912   
C385     C      0.894490000000     0.232670000000     0.990590000000     0.0320796  
C386     C      0.895290000000     0.280820000000     0.518830000000    -0.0116709  
C387     C      0.861590000000     0.233620000000     0.989780000000     0.0380568  
C388     C      0.862000000000     0.280990000000     0.519950000000     0.14411    
C389     C      0.644390000000     0.236720000000     0.524470000000     0.025695   
C390     C      0.645570000000     0.267920000000     0.978190000000    -0.00509621 
C391     C      0.611440000000     0.235160000000     0.522560000000     0.0334478  
C392     C      0.612390000000     0.268310000000     0.977240000000     0.146927   
C393     C      0.731030000000     0.395140000000     0.516990000000     0.0255831  
C394     C      0.778970000000     0.395720000000     0.988390000000    -0.00562526 
C395     C      0.732140000000     0.362230000000     0.518260000000     0.0340392  
C396     C      0.779320000000     0.362450000000     0.987790000000     0.149883   
C397     C      0.728790000000     0.113200000000     0.492430000000     0.0261667  
C398     C      0.777270000000     0.112060000000     0.520110000000    -0.0117605  
C399     C      0.730550000000     0.146150000000     0.490910000000     0.03562    
C400     C      0.778360000000     0.145260000000     0.520380000000     0.146626   
C401     C      0.773400000000     0.022470000000     0.894870000000     0.0257576  
C402     C      0.728890000000     0.488790000000     0.895660000000    -0.0109004  
C403     C      0.771980000000     0.023520000000     0.861910000000     0.0350737  
C404     C      0.728760000000     0.487680000000     0.862420000000     0.147613   
C405     C      0.769870000000     0.024600000000     0.644710000000     0.0249489  
C406     C      0.739510000000     0.477720000000     0.645540000000    -0.0114326  
C407     C      0.771050000000     0.023250000000     0.611760000000     0.0358971  
C408     C      0.738620000000     0.477390000000     0.612300000000     0.147096   
C409     C      0.524170000000     0.271070000000     0.862140000000     0.0269713  
C410     C      0.979110000000     0.238120000000     0.861090000000    -0.00569962 
C411     C      0.522180000000     0.272600000000     0.895040000000     0.0361912  
C412     C      0.978430000000     0.237390000000     0.894320000000     0.152558   
C413     C      0.980210000000     0.240940000000     0.643940000000     0.0313221  
C414     C      0.529200000000     0.267730000000     0.645060000000    -0.0113664  
C415     C      0.981900000000     0.239360000000     0.611000000000     0.0412636  
C416     C      0.530180000000     0.268050000000     0.611850000000     0.146652   
C417     C      0.644810000000     0.026320000000     0.738540000000     0.0248308  
C418     C      0.645530000000     0.479790000000     0.769380000000    -0.0116281  
C419     C      0.611890000000     0.024830000000     0.737230000000     0.0346176  
C420     C      0.612290000000     0.479290000000     0.770070000000     0.144353   
C421     C      0.894610000000     0.489890000000     0.729310000000     0.0266495  
C422     C      0.895640000000     0.020280000000     0.776160000000    -0.0121798  
C423     C      0.861690000000     0.487650000000     0.731600000000     0.0357094  
C424     C      0.862530000000     0.019930000000     0.777580000000     0.146656   
C425     C      0.477720000000     0.363790000000     0.765130000000     0.0266154  
C426     C      0.526870000000     0.362760000000     0.738640000000    -0.0110848  
C427     C      0.479260000000     0.396800000000     0.766450000000     0.0353356  
C428     C      0.527690000000     0.395930000000     0.737990000000     0.144956   
C429     C      0.982450000000     0.145560000000     0.768710000000     0.0319336  
C430     C      0.529020000000     0.146750000000     0.737900000000    -0.0105635  
C431     C      0.983830000000     0.112620000000     0.769540000000     0.0418909  
C432     C      0.529060000000     0.113540000000     0.736240000000     0.14717    
C433     C      0.005300000000     0.564530000000     0.252500000000     0.481853   
C434     C      0.003040000000     0.944920000000     0.252280000000     0.479209   
C435     C      0.943740000000     0.005580000000     0.251810000000     0.472941   
C436     C      0.563450000000     0.003140000000     0.253300000000     0.477546   
C437     C      0.002070000000     0.814600000000     0.252670000000     0.467638   
C438     C      0.004590000000     0.694720000000     0.253440000000     0.468367   
C439     C      0.503670000000     0.754510000000     0.193190000000     0.475688   
C440     C      0.502670000000     0.754640000000     0.313080000000     0.476719   
C441     C      0.813540000000     0.503290000000     0.254460000000     0.482756   
C442     C      0.693810000000     0.503530000000     0.253600000000     0.473369   
C443     C      0.754270000000     0.002270000000     0.193780000000     0.467074   
C444     C      0.752340000000     0.004620000000     0.313580000000     0.472391   
C445     C      0.754180000000     0.501870000000     0.063560000000     0.482722   
C446     C      0.752180000000     0.505370000000     0.443890000000     0.47527    
C447     C      0.752550000000     0.563940000000     0.505530000000     0.474339   
C448     C      0.754140000000     0.944110000000     0.502500000000     0.472212   
C449     C      0.505330000000     0.753830000000     0.062890000000     0.483059   
C450     C      0.501480000000     0.754650000000     0.443290000000     0.481143   
C451     C      0.563300000000     0.752560000000     0.501070000000     0.479353   
C452     C      0.943580000000     0.755790000000     0.504460000000     0.471688   
C453     C      0.754270000000     0.694270000000     0.505000000000     0.481701   
C454     C      0.754140000000     0.813730000000     0.503140000000     0.479092   
C455     C      0.693610000000     0.753240000000     0.002880000000     0.464187   
C456     C      0.813180000000     0.755620000000     0.004980000000     0.466955   
C457     C      0.894490000000     0.732670000000     0.490590000000     0.0260047  
C458     C      0.895290000000     0.780820000000     0.018830000000    -0.0125944  
C459     C      0.861590000000     0.733620000000     0.489780000000     0.0328431  
C460     C      0.862000000000     0.780990000000     0.019950000000     0.142514   
C461     C      0.644390000000     0.736720000000     0.024470000000     0.0268027  
C462     C      0.645570000000     0.767920000000     0.478190000000    -0.0124061  
C463     C      0.611440000000     0.735160000000     0.022560000000     0.0257533  
C464     C      0.612390000000     0.768310000000     0.477240000000     0.147187   
C465     C      0.731030000000     0.895130000000     0.016980000000     0.0247317  
C466     C      0.778970000000     0.895720000000     0.488390000000    -0.011515   
C467     C      0.732140000000     0.862230000000     0.018260000000     0.0327615  
C468     C      0.779320000000     0.862450000000     0.487790000000     0.145016   
C469     C      0.728790000000     0.613200000000     0.992430000000     0.0324227  
C470     C      0.777270000000     0.612060000000     0.020110000000    -0.012628   
C471     C      0.730550000000     0.646160000000     0.990910000000     0.0409667  
C472     C      0.778360000000     0.645260000000     0.020380000000     0.145106   
C473     C      0.773400000000     0.522470000000     0.394870000000     0.0263319  
C474     C      0.728890000000     0.988800000000     0.395660000000    -0.00562898 
C475     C      0.771980000000     0.523520000000     0.361910000000     0.0360617  
C476     C      0.728760000000     0.987680000000     0.362420000000     0.151587   
C477     C      0.769870000000     0.524600000000     0.144710000000     0.0261231  
C478     C      0.739510000000     0.977720000000     0.145540000000    -0.00682074 
C479     C      0.771050000000     0.523250000000     0.111760000000     0.0365687  
C480     C      0.738620000000     0.977390000000     0.112300000000     0.151891   
C481     C      0.524170000000     0.771070000000     0.362140000000     0.0268326  
C482     C      0.979110000000     0.738120000000     0.361090000000    -0.00575001 
C483     C      0.522180000000     0.772600000000     0.395040000000     0.0359851  
C484     C      0.978430000000     0.737390000000     0.394320000000     0.15214    
C485     C      0.980210000000     0.740940000000     0.143940000000     0.0313892  
C486     C      0.529200000000     0.767730000000     0.145060000000    -0.011353   
C487     C      0.981900000000     0.739360000000     0.111000000000     0.0411676  
C488     C      0.530180000000     0.768050000000     0.111850000000     0.146553   
C489     C      0.644810000000     0.526320000000     0.238540000000     0.0259904  
C490     C      0.645530000000     0.979790000000     0.269380000000    -0.00711004 
C491     C      0.611890000000     0.524830000000     0.237230000000     0.0354487  
C492     C      0.612290000000     0.979290000000     0.270070000000     0.149051   
C493     C      0.894610000000     0.989890000000     0.229310000000     0.0320378  
C494     C      0.895640000000     0.520280000000     0.276160000000    -0.0114052  
C495     C      0.861690000000     0.987650000000     0.231600000000     0.0403315  
C496     C      0.862530000000     0.519930000000     0.277580000000     0.147774   
C497     C      0.477720000000     0.863790000000     0.265130000000     0.026761   
C498     C      0.526870000000     0.862760000000     0.238640000000    -0.0110487  
C499     C      0.479260000000     0.896800000000     0.266450000000     0.0354593  
C500     C      0.527690000000     0.895930000000     0.237990000000     0.145241   
C501     C      0.982450000000     0.645560000000     0.268710000000     0.0319033  
C502     C      0.529020000000     0.646750000000     0.237900000000    -0.0105966  
C503     C      0.983830000000     0.612620000000     0.269540000000     0.0419457  
C504     C      0.529060000000     0.613540000000     0.236240000000     0.147243   
C505     C      0.005300000000     0.564530000000     0.752500000000     0.481881   
C506     C      0.003040000000     0.944920000000     0.752280000000     0.479237   
C507     C      0.943740000000     0.005580000000     0.751810000000     0.472974   
C508     C      0.563450000000     0.003140000000     0.753310000000     0.477569   
C509     C      0.002070000000     0.814600000000     0.752670000000     0.467683   
C510     C      0.004590000000     0.694720000000     0.753440000000     0.468414   
C511     C      0.503670000000     0.754510000000     0.693190000000     0.475695   
C512     C      0.502670000000     0.754640000000     0.813080000000     0.476781   
C513     C      0.813540000000     0.503290000000     0.754460000000     0.482752   
C514     C      0.693810000000     0.503530000000     0.753600000000     0.473371   
C515     C      0.754270000000     0.002270000000     0.693780000000     0.467137   
C516     C      0.752340000000     0.004620000000     0.813570000000     0.472513   
C517     C      0.754180000000     0.501870000000     0.563560000000     0.48334    
C518     C      0.752180000000     0.505370000000     0.943890000000     0.474217   
C519     C      0.752550000000     0.563940000000     0.005530000000     0.473102   
C520     C      0.754140000000     0.944110000000     0.002500000000     0.470951   
C521     C      0.505330000000     0.753830000000     0.562890000000     0.483683   
C522     C      0.501480000000     0.754650000000     0.943290000000     0.479915   
C523     C      0.563300000000     0.752560000000     0.001070000000     0.471833   
C524     C      0.943580000000     0.755790000000     0.004460000000     0.470379   
C525     C      0.754270000000     0.694270000000     0.005000000000     0.472781   
C526     C      0.754140000000     0.813730000000     0.003140000000     0.470208   
C527     C      0.693610000000     0.753240000000     0.502880000000     0.472881   
C528     C      0.813180000000     0.755620000000     0.504980000000     0.475909   
C529     C      0.894490000000     0.732670000000     0.990590000000     0.0320981  
C530     C      0.895290000000     0.780820000000     0.518830000000    -0.0116413  
C531     C      0.861590000000     0.733620000000     0.989780000000     0.0380783  
C532     C      0.862000000000     0.780990000000     0.519950000000     0.144221   
C533     C      0.644390000000     0.736720000000     0.524470000000     0.025737   
C534     C      0.645570000000     0.767920000000     0.978190000000    -0.00509855 
C535     C      0.611440000000     0.735160000000     0.522560000000     0.0335044  
C536     C      0.612390000000     0.768310000000     0.977240000000     0.147079   
C537     C      0.731030000000     0.895130000000     0.516990000000     0.02572    
C538     C      0.778970000000     0.895720000000     0.988390000000    -0.00547049 
C539     C      0.732140000000     0.862230000000     0.518260000000     0.0342283  
C540     C      0.779320000000     0.862450000000     0.987790000000     0.150123   
C541     C      0.728790000000     0.613200000000     0.492430000000     0.0262618  
C542     C      0.777270000000     0.612060000000     0.520110000000    -0.0116929  
C543     C      0.730550000000     0.646160000000     0.490910000000     0.0357031  
C544     C      0.778360000000     0.645260000000     0.520380000000     0.146688   
C545     C      0.773400000000     0.522470000000     0.894870000000     0.0265902  
C546     C      0.728890000000     0.988800000000     0.895660000000    -0.0054502  
C547     C      0.771980000000     0.523520000000     0.861910000000     0.0363107  
C548     C      0.728760000000     0.987680000000     0.862420000000     0.151905   
C549     C      0.769870000000     0.524600000000     0.644710000000     0.0261739  
C550     C      0.739510000000     0.977720000000     0.645540000000    -0.00680929 
C551     C      0.771050000000     0.523250000000     0.611760000000     0.0367287  
C552     C      0.738620000000     0.977390000000     0.612300000000     0.152077   
C553     C      0.524170000000     0.771070000000     0.862140000000     0.0270234  
C554     C      0.979110000000     0.738120000000     0.861090000000    -0.00568526 
C555     C      0.522180000000     0.772600000000     0.895040000000     0.0362826  
C556     C      0.978430000000     0.737390000000     0.894320000000     0.152635   
C557     C      0.980210000000     0.740940000000     0.643940000000     0.0314237  
C558     C      0.529200000000     0.767730000000     0.645060000000    -0.0113575  
C559     C      0.981900000000     0.739360000000     0.611000000000     0.0412917  
C560     C      0.530180000000     0.768050000000     0.611850000000     0.146782   
C561     C      0.644810000000     0.526320000000     0.738540000000     0.0260404  
C562     C      0.645530000000     0.979790000000     0.769380000000    -0.00708515 
C563     C      0.611890000000     0.524830000000     0.737230000000     0.0355316  
C564     C      0.612290000000     0.979290000000     0.770070000000     0.149166   
C565     C      0.894610000000     0.989890000000     0.729310000000     0.0320638  
C566     C      0.895640000000     0.520280000000     0.776160000000    -0.0113695  
C567     C      0.861690000000     0.987650000000     0.731600000000     0.0403688  
C568     C      0.862530000000     0.519930000000     0.777580000000     0.147903   
C569     C      0.477720000000     0.863790000000     0.765130000000     0.0268299  
C570     C      0.526870000000     0.862760000000     0.738640000000    -0.0110219  
C571     C      0.479260000000     0.896800000000     0.766450000000     0.0355585  
C572     C      0.527690000000     0.895930000000     0.737990000000     0.145356   
C573     C      0.982450000000     0.645560000000     0.768710000000     0.0319627  
C574     C      0.529020000000     0.646750000000     0.737900000000    -0.0105495  
C575     C      0.983830000000     0.612620000000     0.769540000000     0.0420282  
C576     C      0.529060000000     0.613540000000     0.736240000000     0.147342   
H1       H      0.349190000000     0.214500000000     0.477900000000     0.0264696  
H2       H      0.406310000000     0.213190000000     0.478760000000     0.0293221  
H3       H      0.408180000000     0.299980000000     0.030070000000     0.0436716  
H4       H      0.322790000000     0.309430000000     0.033300000000     0.0983651  
H5       H      0.360230000000     0.324170000000     0.044490000000     0.0849802  
H6       H      0.098770000000     0.222000000000     0.040620000000     0.0276438  
H7       H      0.156150000000     0.224050000000     0.043440000000     0.0318833  
H8       H      0.158550000000     0.280680000000     0.460060000000     0.0448947  
H9       H      0.073640000000     0.282660000000     0.448970000000     0.0988499  
H10      H      0.111070000000     0.295700000000     0.435750000000     0.0842048  
H11      H      0.213170000000     0.349890000000     0.030420000000     0.0270839  
H12      H      0.211600000000     0.407060000000     0.028780000000     0.0289445  
H13      H      0.298030000000     0.408520000000     0.476880000000     0.0444686  
H14      H      0.308110000000     0.323250000000     0.475130000000     0.09962    
H15      H      0.322440000000     0.360580000000     0.463150000000     0.0859398  
H16      H      0.211620000000     0.158850000000     0.979060000000     0.0285766  
H17      H      0.209020000000     0.101450000000     0.981050000000     0.0340653  
H18      H      0.296360000000     0.099070000000     0.031380000000     0.0436449  
H19      H      0.308150000000     0.184030000000     0.531940000000     0.0995477  
H20      H      0.321930000000     0.146560000000     0.044270000000     0.0841121  
H21      H      0.289140000000     0.037960000000     0.349490000000     0.0214661  
H22      H      0.291320000000     0.036440000000     0.406800000000     0.0316315  
H23      H      0.211240000000     0.475300000000     0.408570000000     0.0440715  
H24      H      0.202280000000     0.471010000000     0.323180000000     0.0989431  
H25      H      0.188920000000     0.458020000000     0.360620000000     0.0843902  
H26      H      0.283870000000     0.041630000000     0.099190000000     0.0249959  
H27      H      0.282380000000     0.043600000000     0.156600000000     0.0330499  
H28      H      0.227210000000     0.459200000000     0.158420000000     0.0440979  
H29      H      0.223640000000     0.450110000000     0.072950000000     0.0981852  
H30      H      0.211660000000     0.435670000000     0.110370000000     0.0843129  
H31      H      0.039250000000     0.287050000000     0.407510000000     0.0212344  
H32      H      0.042400000000     0.284700000000     0.350280000000     0.0308424  
H33      H      0.461400000000     0.224830000000     0.348050000000     0.0428996  
H34      H      0.450970000000     0.221750000000     0.433330000000     0.0988516  
H35      H      0.438130000000     0.208350000000     0.395850000000     0.0842788  
H36      H      0.462730000000     0.227900000000     0.098310000000     0.0270743  
H37      H      0.460200000000     0.229990000000     0.155700000000     0.0330912  
H38      H      0.048480000000     0.278680000000     0.158030000000     0.0437202  
H39      H      0.059770000000     0.279450000000     0.072910000000     0.0987472  
H40      H      0.074110000000     0.291270000000     0.110390000000     0.0841677  
H41      H      0.099550000000     0.042900000000     0.223900000000     0.0225455  
H42      H      0.156720000000     0.045130000000     0.225770000000     0.0324004  
H43      H      0.158370000000     0.461300000000     0.281750000000     0.0399645  
H44      H      0.073220000000     0.451030000000     0.284220000000     0.0983764  
H45      H      0.110630000000     0.437500000000     0.296940000000     0.0836165  
H46      H      0.349020000000     0.474560000000     0.213500000000     0.027389   
H47      H      0.406450000000     0.477700000000     0.210080000000     0.0328094  
H48      H      0.408570000000     0.032930000000     0.294410000000     0.0438565  
H49      H      0.323860000000     0.032780000000     0.306760000000     0.0981451  
H50      H      0.361170000000     0.046540000000     0.319580000000     0.0836161  
H51      H      0.960030000000     0.409510000000     0.277770000000     0.0276287  
H52      H      0.957760000000     0.351980000000     0.276100000000     0.0329271  
H53      H      0.046270000000     0.349810000000     0.227880000000     0.0435259  
H54      H      0.571640000000     0.397290000000     0.214800000000     0.0846055  
H55      H      0.057140000000     0.434830000000     0.225980000000     0.0981133  
H56      H      0.465690000000     0.099940000000     0.282580000000     0.0251681  
H57      H      0.463620000000     0.157360000000     0.281560000000     0.0311749  
H58      H      0.047330000000     0.159840000000     0.225510000000     0.0433351  
H59      H      0.054980000000     0.074450000000     0.218640000000     0.0989992  
H60      H      0.069860000000     0.112040000000     0.207900000000     0.0844019  
H61      H      0.349190000000     0.214500000000     0.977900000000     0.0271713  
H62      H      0.406310000000     0.213190000000     0.978760000000     0.0300337  
H63      H      0.408180000000     0.299980000000     0.530070000000     0.0441211  
H64      H      0.322790000000     0.309430000000     0.533300000000     0.0994121  
H65      H      0.360230000000     0.324170000000     0.544490000000     0.0858617  
H66      H      0.098770000000     0.222000000000     0.540620000000     0.0262934  
H67      H      0.156150000000     0.224050000000     0.543440000000     0.032683   
H68      H      0.158550000000     0.280680000000     0.960060000000     0.0444232  
H69      H      0.073640000000     0.282660000000     0.948970000000     0.100442   
H70      H      0.111070000000     0.295700000000     0.935750000000     0.0849013  
H71      H      0.213170000000     0.349890000000     0.530420000000     0.0274512  
H72      H      0.211600000000     0.407060000000     0.528780000000     0.0293995  
H73      H      0.298030000000     0.408520000000     0.976880000000     0.0451947  
H74      H      0.308110000000     0.323250000000     0.975130000000     0.101901   
H75      H      0.322440000000     0.360580000000     0.963150000000     0.0872902  
H76      H      0.211620000000     0.158850000000     0.479060000000     0.0279218  
H77      H      0.209020000000     0.101450000000     0.481050000000     0.0332157  
H78      H      0.296360000000     0.099070000000     0.531380000000     0.0440437  
H79      H      0.308150000000     0.184030000000     0.031940000000     0.0985768  
H80      H      0.321930000000     0.146560000000     0.544270000000     0.0849372  
H81      H      0.289140000000     0.037960000000     0.849490000000     0.0216716  
H82      H      0.291320000000     0.036440000000     0.906810000000     0.0324884  
H83      H      0.211240000000     0.475300000000     0.908570000000     0.0449347  
H84      H      0.202280000000     0.471010000000     0.823190000000     0.0991429  
H85      H      0.188920000000     0.458020000000     0.860620000000     0.0849066  
H86      H      0.283870000000     0.041630000000     0.599190000000     0.0251414  
H87      H      0.282380000000     0.043600000000     0.656600000000     0.0331339  
H88      H      0.227210000000     0.459200000000     0.658420000000     0.0441561  
H89      H      0.223640000000     0.450110000000     0.572950000000     0.0983341  
H90      H      0.211660000000     0.435670000000     0.610370000000     0.0845105  
H91      H      0.039250000000     0.287050000000     0.907510000000     0.0217794  
H92      H      0.042400000000     0.284700000000     0.850280000000     0.0310384  
H93      H      0.461400000000     0.224830000000     0.848050000000     0.0430753  
H94      H      0.450970000000     0.221750000000     0.933330000000     0.100178   
H95      H      0.438130000000     0.208350000000     0.895850000000     0.0848641  
H96      H      0.462730000000     0.227900000000     0.598310000000     0.0272897  
H97      H      0.460200000000     0.229990000000     0.655700000000     0.0331761  
H98      H      0.048480000000     0.278680000000     0.658030000000     0.043785   
H99      H      0.059770000000     0.279450000000     0.572910000000     0.0989437  
H100     H      0.074110000000     0.291270000000     0.610380000000     0.0844833  
H101     H      0.099550000000     0.042900000000     0.723900000000     0.0226189  
H102     H      0.156720000000     0.045130000000     0.725770000000     0.032475   
H103     H      0.158370000000     0.461300000000     0.781750000000     0.040048   
H104     H      0.073220000000     0.451030000000     0.784220000000     0.098531   
H105     H      0.110630000000     0.437500000000     0.796940000000     0.0838551  
H106     H      0.349020000000     0.474560000000     0.713500000000     0.0274585  
H107     H      0.406450000000     0.477700000000     0.710080000000     0.0329245  
H108     H      0.408570000000     0.032930000000     0.794410000000     0.0440719  
H109     H      0.323860000000     0.032780000000     0.806760000000     0.0982787  
H110     H      0.361170000000     0.046540000000     0.819580000000     0.0839659  
H111     H      0.960030000000     0.409510000000     0.777770000000     0.0277896  
H112     H      0.957760000000     0.351980000000     0.776100000000     0.0330582  
H113     H      0.046270000000     0.349810000000     0.727880000000     0.0435735  
H114     H      0.571640000000     0.397290000000     0.714800000000     0.0846704  
H115     H      0.057140000000     0.434830000000     0.725980000000     0.0981681  
H116     H      0.465690000000     0.099940000000     0.782580000000     0.0253294  
H117     H      0.463620000000     0.157360000000     0.781560000000     0.0312954  
H118     H      0.047330000000     0.159840000000     0.725510000000     0.0433957  
H119     H      0.054980000000     0.074450000000     0.718640000000     0.0990843  
H120     H      0.069860000000     0.112040000000     0.707900000000     0.0845384  
H121     H      0.349190000000     0.714500000000     0.477900000000     0.0265138  
H122     H      0.406310000000     0.713190000000     0.478760000000     0.0294006  
H123     H      0.408180000000     0.799980000000     0.030070000000     0.0438995  
H124     H      0.322790000000     0.809440000000     0.033300000000     0.0984653  
H125     H      0.360230000000     0.824170000000     0.044490000000     0.0853124  
H126     H      0.098770000000     0.722000000000     0.040620000000     0.0277164  
H127     H      0.156150000000     0.724050000000     0.043440000000     0.0319412  
H128     H      0.158550000000     0.780680000000     0.460060000000     0.0449912  
H129     H      0.073640000000     0.782660000000     0.448970000000     0.0989585  
H130     H      0.111070000000     0.795700000000     0.435750000000     0.0843526  
H131     H      0.213170000000     0.849890000000     0.030420000000     0.027238   
H132     H      0.211600000000     0.907060000000     0.028780000000     0.0294555  
H133     H      0.298030000000     0.908520000000     0.476880000000     0.0452329  
H134     H      0.308110000000     0.823240000000     0.475130000000     0.0996541  
H135     H      0.322440000000     0.860580000000     0.463150000000     0.0864079  
H136     H      0.211620000000     0.658850000000     0.979060000000     0.028653   
H137     H      0.209020000000     0.601460000000     0.981050000000     0.0343337  
H138     H      0.296360000000     0.599070000000     0.031380000000     0.0438214  
H139     H      0.308150000000     0.684030000000     0.531940000000     0.0995826  
H140     H      0.321930000000     0.646560000000     0.044270000000     0.0842747  
H141     H      0.289140000000     0.537960000000     0.349490000000     0.0214672  
H142     H      0.291320000000     0.536440000000     0.406800000000     0.0319005  
H143     H      0.211240000000     0.975300000000     0.408570000000     0.044536   
H144     H      0.202280000000     0.971020000000     0.323180000000     0.100297   
H145     H      0.188920000000     0.958020000000     0.360620000000     0.0851817  
H146     H      0.283870000000     0.541630000000     0.099190000000     0.0251876  
H147     H      0.282380000000     0.543600000000     0.156600000000     0.0331982  
H148     H      0.227210000000     0.959200000000     0.158420000000     0.0440291  
H149     H      0.223640000000     0.950110000000     0.072950000000     0.0998319  
H150     H      0.211660000000     0.935670000000     0.110370000000     0.0849693  
H151     H      0.039250000000     0.787050000000     0.407510000000     0.0213668  
H152     H      0.042400000000     0.784700000000     0.350280000000     0.0309426  
H153     H      0.461400000000     0.724840000000     0.348050000000     0.0429646  
H154     H      0.450970000000     0.721750000000     0.433330000000     0.0989235  
H155     H      0.438130000000     0.708350000000     0.395850000000     0.0843794  
H156     H      0.462730000000     0.727900000000     0.098310000000     0.0271564  
H157     H      0.460200000000     0.729980000000     0.155700000000     0.0331365  
H158     H      0.048480000000     0.778680000000     0.158030000000     0.0438065  
H159     H      0.059770000000     0.779450000000     0.072910000000     0.0988626  
H160     H      0.074110000000     0.791270000000     0.110390000000     0.0843464  
H161     H      0.099550000000     0.542900000000     0.223900000000     0.022711   
H162     H      0.156720000000     0.545130000000     0.225770000000     0.0325131  
H163     H      0.158370000000     0.961310000000     0.281750000000     0.0396307  
H164     H      0.073220000000     0.951030000000     0.284220000000     0.0999971  
H165     H      0.110630000000     0.937500000000     0.296940000000     0.0842023  
H166     H      0.349020000000     0.974560000000     0.213500000000     0.0278918  
H167     H      0.406450000000     0.977700000000     0.210080000000     0.0335068  
H168     H      0.408570000000     0.532930000000     0.294410000000     0.0441275  
H169     H      0.323860000000     0.532780000000     0.306760000000     0.0985704  
H170     H      0.361170000000     0.546540000000     0.319580000000     0.0840866  
H171     H      0.960030000000     0.909510000000     0.277770000000     0.0284438  
H172     H      0.957760000000     0.851980000000     0.276100000000     0.0331525  
H173     H      0.046270000000     0.849810000000     0.227880000000     0.0436531  
H174     H      0.571640000000     0.897290000000     0.214800000000     0.0851431  
H175     H      0.057140000000     0.934830000000     0.225980000000     0.099254   
H176     H      0.465690000000     0.599940000000     0.282580000000     0.0252811  
H177     H      0.463620000000     0.657360000000     0.281560000000     0.0312396  
H178     H      0.047330000000     0.659840000000     0.225510000000     0.0433924  
H179     H      0.054980000000     0.574450000000     0.218640000000     0.0991719  
H180     H      0.069860000000     0.612040000000     0.207900000000     0.084603   
H181     H      0.349190000000     0.714500000000     0.977900000000     0.0272149  
H182     H      0.406310000000     0.713190000000     0.978760000000     0.0301113  
H183     H      0.408180000000     0.799980000000     0.530070000000     0.0443477  
H184     H      0.322790000000     0.809440000000     0.533300000000     0.0995092  
H185     H      0.360230000000     0.824170000000     0.544490000000     0.086191   
H186     H      0.098770000000     0.722000000000     0.540620000000     0.0263698  
H187     H      0.156150000000     0.724050000000     0.543440000000     0.0327398  
H188     H      0.158550000000     0.780680000000     0.960060000000     0.0445196  
H189     H      0.073640000000     0.782660000000     0.948970000000     0.100546   
H190     H      0.111070000000     0.795700000000     0.935750000000     0.085046   
H191     H      0.213170000000     0.849890000000     0.530420000000     0.0276048  
H192     H      0.211600000000     0.907060000000     0.528780000000     0.0299089  
H193     H      0.298030000000     0.908520000000     0.976880000000     0.0459522  
H194     H      0.308110000000     0.823240000000     0.975130000000     0.101927   
H195     H      0.322440000000     0.860580000000     0.963150000000     0.0877511  
H196     H      0.211620000000     0.658850000000     0.479060000000     0.0280015  
H197     H      0.209020000000     0.601460000000     0.481050000000     0.0334871  
H198     H      0.296360000000     0.599070000000     0.531380000000     0.0442206  
H199     H      0.308150000000     0.684030000000     0.031940000000     0.0986128  
H200     H      0.321930000000     0.646560000000     0.544270000000     0.0850995  
H201     H      0.289140000000     0.537960000000     0.849490000000     0.021673   
H202     H      0.291320000000     0.536440000000     0.906810000000     0.0327564  
H203     H      0.211240000000     0.975300000000     0.908570000000     0.0453929  
H204     H      0.202280000000     0.971020000000     0.823190000000     0.100491   
H205     H      0.188920000000     0.958020000000     0.860620000000     0.0856926  
H206     H      0.283870000000     0.541630000000     0.599190000000     0.0253332  
H207     H      0.282380000000     0.543600000000     0.656600000000     0.0332822  
H208     H      0.227210000000     0.959200000000     0.658420000000     0.0440872  
H209     H      0.223640000000     0.950110000000     0.572950000000     0.0999793  
H210     H      0.211660000000     0.935670000000     0.610370000000     0.0851656  
H211     H      0.039250000000     0.787050000000     0.907510000000     0.0219096  
H212     H      0.042400000000     0.784700000000     0.850280000000     0.0311376  
H213     H      0.461400000000     0.724840000000     0.848050000000     0.0431399  
H214     H      0.450970000000     0.721750000000     0.933330000000     0.100247   
H215     H      0.438130000000     0.708350000000     0.895850000000     0.0849636  
H216     H      0.462730000000     0.727900000000     0.598310000000     0.0273718  
H217     H      0.460200000000     0.729980000000     0.655700000000     0.0332213  
H218     H      0.048480000000     0.778680000000     0.658030000000     0.0438712  
H219     H      0.059770000000     0.779450000000     0.572910000000     0.0990584  
H220     H      0.074110000000     0.791270000000     0.610380000000     0.0846612  
H221     H      0.099550000000     0.542900000000     0.723900000000     0.0227846  
H222     H      0.156720000000     0.545130000000     0.725770000000     0.0325881  
H223     H      0.158370000000     0.961310000000     0.781750000000     0.0397146  
H224     H      0.073220000000     0.951030000000     0.784220000000     0.100146   
H225     H      0.110630000000     0.937500000000     0.796940000000     0.084438   
H226     H      0.349020000000     0.974560000000     0.713500000000     0.0279605  
H227     H      0.406450000000     0.977700000000     0.710080000000     0.0336205  
H228     H      0.408570000000     0.532930000000     0.794410000000     0.0443423  
H229     H      0.323860000000     0.532780000000     0.806760000000     0.0987031  
H230     H      0.361170000000     0.546540000000     0.819580000000     0.0844352  
H231     H      0.960030000000     0.909510000000     0.777770000000     0.0286014  
H232     H      0.957760000000     0.851980000000     0.776100000000     0.0332823  
H233     H      0.046270000000     0.849810000000     0.727880000000     0.0437004  
H234     H      0.571640000000     0.897290000000     0.714800000000     0.0852068  
H235     H      0.057140000000     0.934830000000     0.725980000000     0.099306   
H236     H      0.465690000000     0.599940000000     0.782580000000     0.025442   
H237     H      0.463620000000     0.657360000000     0.781560000000     0.0313599  
H238     H      0.047330000000     0.659840000000     0.725510000000     0.043453   
H239     H      0.054980000000     0.574450000000     0.718640000000     0.0992571  
H240     H      0.069860000000     0.612040000000     0.707900000000     0.0847395  
H241     H      0.849190000000     0.214500000000     0.477900000000     0.0266185  
H242     H      0.906310000000     0.213190000000     0.478760000000     0.0298297  
H243     H      0.908190000000     0.299980000000     0.030070000000     0.0444509  
H244     H      0.822790000000     0.309430000000     0.033300000000     0.098476   
H245     H      0.860230000000     0.324170000000     0.044490000000     0.0854604  
H246     H      0.598770000000     0.222000000000     0.040620000000     0.0278036  
H247     H      0.656150000000     0.224050000000     0.043440000000     0.0319557  
H248     H      0.658550000000     0.280680000000     0.460060000000     0.0449456  
H249     H      0.573640000000     0.282660000000     0.448970000000     0.0989717  
H250     H      0.611070000000     0.295700000000     0.435750000000     0.0843782  
H251     H      0.713170000000     0.349890000000     0.030420000000     0.0271321  
H252     H      0.711600000000     0.407060000000     0.028780000000     0.0290343  
H253     H      0.798030000000     0.408520000000     0.476880000000     0.0446944  
H254     H      0.808110000000     0.323250000000     0.475130000000     0.0997304  
H255     H      0.822440000000     0.360580000000     0.463150000000     0.08628    
H256     H      0.711620000000     0.158850000000     0.979060000000     0.0286502  
H257     H      0.709020000000     0.101450000000     0.981050000000     0.0341908  
H258     H      0.796360000000     0.099070000000     0.031380000000     0.0438543  
H259     H      0.808140000000     0.184030000000     0.531940000000     0.0996949  
H260     H      0.821930000000     0.146560000000     0.044270000000     0.0844525  
H261     H      0.789140000000     0.037960000000     0.349490000000     0.0215701  
H262     H      0.791320000000     0.036440000000     0.406800000000     0.0318     
H263     H      0.711240000000     0.475300000000     0.408570000000     0.0441692  
H264     H      0.702280000000     0.471010000000     0.323180000000     0.0989784  
H265     H      0.688920000000     0.458020000000     0.360620000000     0.0845145  
H266     H      0.783870000000     0.041630000000     0.099190000000     0.0251681  
H267     H      0.782370000000     0.043600000000     0.156600000000     0.0331955  
H268     H      0.727210000000     0.459200000000     0.158420000000     0.044134   
H269     H      0.723640000000     0.450110000000     0.072950000000     0.0982626  
H270     H      0.711660000000     0.435670000000     0.110370000000     0.0844066  
H271     H      0.539250000000     0.287050000000     0.407510000000     0.0214424  
H272     H      0.542400000000     0.284700000000     0.350280000000     0.0309313  
H273     H      0.961400000000     0.224830000000     0.348050000000     0.042754   
H274     H      0.950980000000     0.221750000000     0.433330000000     0.100598   
H275     H      0.938130000000     0.208350000000     0.395850000000     0.0849992  
H276     H      0.962730000000     0.227900000000     0.098310000000     0.0274528  
H277     H      0.960200000000     0.229990000000     0.155700000000     0.0331515  
H278     H      0.548480000000     0.278680000000     0.158030000000     0.0436685  
H279     H      0.559770000000     0.279450000000     0.072910000000     0.0988458  
H280     H      0.574110000000     0.291270000000     0.110390000000     0.0844125  
H281     H      0.599550000000     0.042900000000     0.223900000000     0.0226357  
H282     H      0.656720000000     0.045130000000     0.225770000000     0.0324523  
H283     H      0.658370000000     0.461300000000     0.281750000000     0.0399956  
H284     H      0.573220000000     0.451030000000     0.284220000000     0.0985843  
H285     H      0.610630000000     0.437500000000     0.296940000000     0.0838174  
H286     H      0.849020000000     0.474560000000     0.213500000000     0.0276179  
H287     H      0.906450000000     0.477700000000     0.210080000000     0.0335943  
H288     H      0.908570000000     0.032930000000     0.294410000000     0.0444936  
H289     H      0.823860000000     0.032780000000     0.306760000000     0.0982497  
H290     H      0.861170000000     0.046540000000     0.319580000000     0.0840144  
H291     H      0.460030000000     0.409510000000     0.277770000000     0.0272646  
H292     H      0.457760000000     0.351980000000     0.276100000000     0.0328578  
H293     H      0.546280000000     0.349810000000     0.227880000000     0.0434595  
H294     H      0.071640000000     0.397290000000     0.214800000000     0.084363   
H295     H      0.557140000000     0.434830000000     0.225980000000     0.0982076  
H296     H      0.965690000000     0.099940000000     0.282580000000     0.0254972  
H297     H      0.963620000000     0.157360000000     0.281560000000     0.0311678  
H298     H      0.547330000000     0.159840000000     0.225510000000     0.0433639  
H299     H      0.554980000000     0.074450000000     0.218640000000     0.0991646  
H300     H      0.569860000000     0.112040000000     0.207900000000     0.0847942  
H301     H      0.849190000000     0.214500000000     0.977900000000     0.0273169  
H302     H      0.906310000000     0.213190000000     0.978760000000     0.0305361  
H303     H      0.908190000000     0.299980000000     0.530070000000     0.0448984  
H304     H      0.822790000000     0.309430000000     0.533300000000     0.0995198  
H305     H      0.860230000000     0.324170000000     0.544490000000     0.0863388  
H306     H      0.598770000000     0.222000000000     0.540620000000     0.0264542  
H307     H      0.656150000000     0.224050000000     0.543440000000     0.032755   
H308     H      0.658550000000     0.280680000000     0.960060000000     0.0444742  
H309     H      0.573640000000     0.282660000000     0.948970000000     0.100563   
H310     H      0.611070000000     0.295700000000     0.935750000000     0.0850732  
H311     H      0.713170000000     0.349890000000     0.530420000000     0.0274996  
H312     H      0.711600000000     0.407060000000     0.528780000000     0.0294895  
H313     H      0.798030000000     0.408520000000     0.976880000000     0.0454162  
H314     H      0.808110000000     0.323250000000     0.975130000000     0.102003   
H315     H      0.822440000000     0.360580000000     0.963150000000     0.0876233  
H316     H      0.711620000000     0.158850000000     0.479060000000     0.0279963  
H317     H      0.709020000000     0.101450000000     0.481050000000     0.0333429  
H318     H      0.796360000000     0.099070000000     0.531380000000     0.0442518  
H319     H      0.808140000000     0.184030000000     0.031940000000     0.0987277  
H320     H      0.821930000000     0.146560000000     0.544270000000     0.0852746  
H321     H      0.789140000000     0.037960000000     0.849490000000     0.0217746  
H322     H      0.791320000000     0.036440000000     0.906810000000     0.0326532  
H323     H      0.711240000000     0.475300000000     0.908570000000     0.0450304  
H324     H      0.702280000000     0.471010000000     0.823190000000     0.099178   
H325     H      0.688920000000     0.458020000000     0.860620000000     0.0850297  
H326     H      0.783870000000     0.041630000000     0.599190000000     0.025313   
H327     H      0.782370000000     0.043600000000     0.656600000000     0.033279   
H328     H      0.727210000000     0.459200000000     0.658420000000     0.0441923  
H329     H      0.723640000000     0.450110000000     0.572950000000     0.0984115  
H330     H      0.711660000000     0.435670000000     0.610370000000     0.0846042  
H331     H      0.539250000000     0.287050000000     0.907510000000     0.0219865  
H332     H      0.542400000000     0.284700000000     0.850280000000     0.0311272  
H333     H      0.961400000000     0.224830000000     0.848050000000     0.0429294  
H334     H      0.950980000000     0.221750000000     0.933330000000     0.101908   
H335     H      0.938130000000     0.208350000000     0.895850000000     0.085579   
H336     H      0.962730000000     0.227900000000     0.598310000000     0.0276669  
H337     H      0.960200000000     0.229990000000     0.655700000000     0.0332361  
H338     H      0.548480000000     0.278680000000     0.658030000000     0.0437336  
H339     H      0.559770000000     0.279450000000     0.572910000000     0.0990422  
H340     H      0.574110000000     0.291270000000     0.610380000000     0.0847281  
H341     H      0.599550000000     0.042900000000     0.723900000000     0.0227092  
H342     H      0.656720000000     0.045130000000     0.725770000000     0.0325269  
H343     H      0.658370000000     0.461300000000     0.781750000000     0.0400789  
H344     H      0.573220000000     0.451030000000     0.784220000000     0.0987382  
H345     H      0.610630000000     0.437500000000     0.796940000000     0.0840552  
H346     H      0.849020000000     0.474560000000     0.713500000000     0.0276868  
H347     H      0.906450000000     0.477700000000     0.710080000000     0.0337074  
H348     H      0.908570000000     0.032930000000     0.794410000000     0.0447058  
H349     H      0.823860000000     0.032780000000     0.806760000000     0.0983826  
H350     H      0.861170000000     0.046540000000     0.819580000000     0.0843612  
H351     H      0.460030000000     0.409510000000     0.777770000000     0.0274277  
H352     H      0.457760000000     0.351980000000     0.776100000000     0.0329902  
H353     H      0.546280000000     0.349810000000     0.727880000000     0.0435076  
H354     H      0.071640000000     0.397290000000     0.714800000000     0.0844279  
H355     H      0.557140000000     0.434830000000     0.725980000000     0.0982626  
H356     H      0.965690000000     0.099940000000     0.782580000000     0.0256563  
H357     H      0.963620000000     0.157360000000     0.781560000000     0.0312874  
H358     H      0.547330000000     0.159840000000     0.725510000000     0.0434248  
H359     H      0.554980000000     0.074450000000     0.718640000000     0.0992498  
H360     H      0.569860000000     0.112040000000     0.707900000000     0.0849305  
H361     H      0.849190000000     0.714500000000     0.477900000000     0.0266625  
H362     H      0.906310000000     0.713190000000     0.478760000000     0.0299073  
H363     H      0.908190000000     0.799980000000     0.030070000000     0.0446752  
H364     H      0.822790000000     0.809440000000     0.033300000000     0.0985755  
H365     H      0.860230000000     0.824170000000     0.044490000000     0.0857895  
H366     H      0.598770000000     0.722000000000     0.040620000000     0.0278763  
H367     H      0.656150000000     0.724050000000     0.043440000000     0.0320136  
H368     H      0.658550000000     0.780680000000     0.460060000000     0.0450419  
H369     H      0.573640000000     0.782660000000     0.448970000000     0.09908    
H370     H      0.611070000000     0.795700000000     0.435750000000     0.0845255  
H371     H      0.713170000000     0.849890000000     0.030420000000     0.0272859  
H372     H      0.711600000000     0.907060000000     0.028780000000     0.0295443  
H373     H      0.798030000000     0.908520000000     0.476880000000     0.045455   
H374     H      0.808110000000     0.823240000000     0.475130000000     0.0997636  
H375     H      0.822440000000     0.860580000000     0.463150000000     0.0867449  
H376     H      0.711620000000     0.658850000000     0.979060000000     0.0287266  
H377     H      0.709020000000     0.601460000000     0.981050000000     0.0344593  
H378     H      0.796360000000     0.599070000000     0.031380000000     0.0440302  
H379     H      0.808140000000     0.684030000000     0.531940000000     0.0997295  
H380     H      0.821930000000     0.646560000000     0.044270000000     0.0846143  
H381     H      0.789140000000     0.537960000000     0.349490000000     0.0215711  
H382     H      0.791320000000     0.536440000000     0.406800000000     0.0320685  
H383     H      0.711240000000     0.975300000000     0.408570000000     0.0446328  
H384     H      0.702280000000     0.971020000000     0.323180000000     0.100329   
H385     H      0.688920000000     0.958020000000     0.360620000000     0.0853042  
H386     H      0.783870000000     0.541630000000     0.099190000000     0.0253592  
H387     H      0.782370000000     0.543600000000     0.156600000000     0.0333428  
H388     H      0.727210000000     0.959200000000     0.158420000000     0.0440655  
H389     H      0.723640000000     0.950110000000     0.072950000000     0.0999053  
H390     H      0.711660000000     0.935670000000     0.110370000000     0.0850615  
H391     H      0.539250000000     0.787050000000     0.407510000000     0.0215743  
H392     H      0.542400000000     0.784700000000     0.350280000000     0.0310311  
H393     H      0.961400000000     0.724840000000     0.348050000000     0.0428187  
H394     H      0.950980000000     0.721750000000     0.433330000000     0.100666   
H395     H      0.938130000000     0.708350000000     0.395850000000     0.0850984  
H396     H      0.962730000000     0.727900000000     0.098310000000     0.0275344  
H397     H      0.960200000000     0.729980000000     0.155700000000     0.0331972  
H398     H      0.548480000000     0.778680000000     0.158030000000     0.0437549  
H399     H      0.559770000000     0.779450000000     0.072910000000     0.0989609  
H400     H      0.574110000000     0.791270000000     0.110390000000     0.0845905  
H401     H      0.599550000000     0.542900000000     0.223900000000     0.0228014  
H402     H      0.656720000000     0.545130000000     0.225770000000     0.032565   
H403     H      0.658370000000     0.961310000000     0.281750000000     0.0396624  
H404     H      0.573220000000     0.951030000000     0.284220000000     0.100204   
H405     H      0.610630000000     0.937500000000     0.296940000000     0.0844022  
H406     H      0.849020000000     0.974560000000     0.213500000000     0.0281178  
H407     H      0.906450000000     0.977700000000     0.210080000000     0.0342851  
H408     H      0.908570000000     0.532930000000     0.294410000000     0.0447637  
H409     H      0.823860000000     0.532780000000     0.306760000000     0.0986741  
H410     H      0.861170000000     0.546540000000     0.319580000000     0.0844836  
H411     H      0.460030000000     0.909510000000     0.277770000000     0.028085   
H412     H      0.457760000000     0.851980000000     0.276100000000     0.0330846  
H413     H      0.546280000000     0.849810000000     0.227880000000     0.043587   
H414     H      0.071640000000     0.897290000000     0.214800000000     0.0849017  
H415     H      0.557140000000     0.934830000000     0.225980000000     0.0993473  
H416     H      0.965690000000     0.599940000000     0.282580000000     0.0256096  
H417     H      0.963620000000     0.657360000000     0.281560000000     0.0312324  
H418     H      0.547330000000     0.659840000000     0.225510000000     0.0434213  
H419     H      0.554980000000     0.574450000000     0.218640000000     0.0993375  
H420     H      0.569860000000     0.612040000000     0.207900000000     0.0849953  
H421     H      0.849190000000     0.714500000000     0.977900000000     0.0273601  
H422     H      0.906310000000     0.713190000000     0.978760000000     0.0306126  
H423     H      0.908190000000     0.799980000000     0.530070000000     0.0451214  
H424     H      0.822790000000     0.809440000000     0.533300000000     0.0996161  
H425     H      0.860230000000     0.824170000000     0.544490000000     0.086665   
H426     H      0.598770000000     0.722000000000     0.540620000000     0.0265307  
H427     H      0.656150000000     0.724050000000     0.543440000000     0.0328118  
H428     H      0.658550000000     0.780680000000     0.960060000000     0.0445704  
H429     H      0.573640000000     0.782660000000     0.948970000000     0.100666   
H430     H      0.611070000000     0.795700000000     0.935750000000     0.0852173  
H431     H      0.713170000000     0.849890000000     0.530420000000     0.0276529  
H432     H      0.711600000000     0.907060000000     0.528780000000     0.0299979  
H433     H      0.798030000000     0.908520000000     0.976880000000     0.04617    
H434     H      0.808110000000     0.823240000000     0.975130000000     0.102028   
H435     H      0.822440000000     0.860580000000     0.963150000000     0.088081   
H436     H      0.711620000000     0.658850000000     0.479060000000     0.028076   
H437     H      0.709020000000     0.601460000000     0.481050000000     0.0336143  
H438     H      0.796360000000     0.599070000000     0.531380000000     0.0444281  
H439     H      0.808140000000     0.684030000000     0.031940000000     0.0987634  
H440     H      0.821930000000     0.646560000000     0.544270000000     0.0854362  
H441     H      0.789140000000     0.537960000000     0.849490000000     0.021776   
H442     H      0.791320000000     0.536440000000     0.906810000000     0.0329208  
H443     H      0.711240000000     0.975300000000     0.908570000000     0.0454878  
H444     H      0.702280000000     0.971020000000     0.823190000000     0.100523   
H445     H      0.688920000000     0.958020000000     0.860620000000     0.0858139  
H446     H      0.783870000000     0.541630000000     0.599190000000     0.0255043  
H447     H      0.782370000000     0.543600000000     0.656600000000     0.0334264  
H448     H      0.727210000000     0.959200000000     0.658420000000     0.0441236  
H449     H      0.723640000000     0.950110000000     0.572950000000     0.100053   
H450     H      0.711660000000     0.935670000000     0.610370000000     0.0852577  
H451     H      0.539250000000     0.787050000000     0.907510000000     0.0221161  
H452     H      0.542400000000     0.784700000000     0.850280000000     0.0312259  
H453     H      0.961400000000     0.724840000000     0.848050000000     0.0429937  
H454     H      0.950980000000     0.721750000000     0.933330000000     0.101973   
H455     H      0.938130000000     0.708350000000     0.895850000000     0.085677   
H456     H      0.962730000000     0.727900000000     0.598310000000     0.0277484  
H457     H      0.960200000000     0.729980000000     0.655700000000     0.0332818  
H458     H      0.548480000000     0.778680000000     0.658030000000     0.0438198  
H459     H      0.559770000000     0.779450000000     0.572910000000     0.0991567  
H460     H      0.574110000000     0.791270000000     0.610380000000     0.0849054  
H461     H      0.599550000000     0.542900000000     0.723900000000     0.022875   
H462     H      0.656720000000     0.545130000000     0.725770000000     0.0326399  
H463     H      0.658370000000     0.961310000000     0.781750000000     0.0397461  
H464     H      0.573220000000     0.951030000000     0.784220000000     0.100352   
H465     H      0.610630000000     0.937500000000     0.796940000000     0.084637   
H466     H      0.849020000000     0.974560000000     0.713500000000     0.0281859  
H467     H      0.906450000000     0.977700000000     0.710080000000     0.0343969  
H468     H      0.908570000000     0.532930000000     0.794410000000     0.0449753  
H469     H      0.823860000000     0.532780000000     0.806760000000     0.0988059  
H470     H      0.861170000000     0.546540000000     0.819580000000     0.0848293  
H471     H      0.460030000000     0.909510000000     0.777770000000     0.0282449  
H472     H      0.457760000000     0.851980000000     0.776100000000     0.0332158  
H473     H      0.546280000000     0.849810000000     0.727880000000     0.0436348  
H474     H      0.071640000000     0.897290000000     0.714800000000     0.0849654  
H475     H      0.557140000000     0.934830000000     0.725980000000     0.0993996  
H476     H      0.965690000000     0.599940000000     0.782580000000     0.0257683  
H477     H      0.963620000000     0.657360000000     0.781560000000     0.0313518  
H478     H      0.547330000000     0.659840000000     0.725510000000     0.0434822  
H479     H      0.554980000000     0.574450000000     0.718640000000     0.0994227  
H480     H      0.569860000000     0.612040000000     0.707900000000     0.0851317  
N1       N      0.411240000000     0.256480000000     0.504680000000    -0.183051   
N2       N      0.345420000000     0.257010000000     0.005170000000    -0.211916   
N3       N      0.347210000000     0.306110000000     0.033720000000    -0.214178   
N4       N      0.161290000000     0.252720000000     0.002010000000    -0.185681   
N5       N      0.095530000000     0.251760000000     0.499780000000    -0.209558   
N6       N      0.097940000000     0.283460000000     0.452760000000    -0.214154   
N7       N      0.254680000000     0.411770000000     0.502500000000    -0.183097   
N8       N      0.255500000000     0.345960000000     0.502910000000    -0.209668   
N9       N      0.304510000000     0.347610000000     0.474200000000    -0.214139   
N10      N      0.252570000000     0.096290000000     0.506320000000    -0.182223   
N11      N      0.254710000000     0.162040000000     0.505470000000    -0.209513   
N12      N      0.304100000000     0.159740000000     0.033320000000    -0.213847   
N13      N      0.251560000000     0.505510000000     0.411570000000    -0.182455   
N14      N      0.250720000000     0.505210000000     0.345800000000    -0.209419   
N15      N      0.205530000000     0.470940000000     0.347620000000    -0.214156   
N16      N      0.254510000000     0.501580000000     0.161450000000    -0.182393   
N17      N      0.254670000000     0.000460000000     0.095730000000    -0.21298    
N18      N      0.223470000000     0.453130000000     0.097430000000    -0.214365   
N19      N      0.002230000000     0.254390000000     0.345350000000    -0.185265   
N20      N      0.000340000000     0.254860000000     0.411050000000    -0.212783   
N21      N      0.454700000000     0.221220000000     0.408950000000    -0.213974   
N22      N      0.004150000000     0.254580000000     0.160830000000    -0.184636   
N23      N      0.006190000000     0.253660000000     0.095100000000    -0.213035   
N24      N      0.056010000000     0.280690000000     0.097260000000    -0.213899   
N25      N      0.161490000000     0.003420000000     0.254020000000    -0.185223   
N26      N      0.095700000000     0.502150000000     0.253730000000    -0.209892   
N27      N      0.097580000000     0.454760000000     0.284960000000    -0.214098   
N28      N      0.411420000000     0.505580000000     0.252030000000    -0.182475   
N29      N      0.345770000000     0.003340000000     0.255030000000    -0.211621   
N30      N      0.348070000000     0.034270000000     0.302560000000    -0.213874   
N31      N      0.501920000000     0.346940000000     0.251920000000    -0.182649   
N32      N      0.503610000000     0.412700000000     0.252240000000    -0.20995    
N33      N      0.053470000000     0.410470000000     0.225180000000    -0.214311   
N34      N      0.505390000000     0.162440000000     0.253410000000    -0.182862   
N35      N      0.506350000000     0.096740000000     0.252620000000    -0.209233   
N36      N      0.052600000000     0.098930000000     0.219830000000    -0.215015   
N37      N      0.411240000000     0.256480000000     0.004680000000    -0.186696   
N38      N      0.345420000000     0.257010000000     0.505170000000    -0.209574   
N39      N      0.347210000000     0.306110000000     0.533720000000    -0.214199   
N40      N      0.161290000000     0.252720000000     0.502010000000    -0.182291   
N41      N      0.095530000000     0.251760000000     0.999780000000    -0.201216   
N42      N      0.097940000000     0.283460000000     0.952760000000    -0.213482   
N43      N      0.254680000000     0.411770000000     0.002500000000    -0.186731   
N44      N      0.255500000000     0.345960000000     0.002910000000    -0.212077   
N45      N      0.304510000000     0.347610000000     0.974200000000    -0.214435   
N46      N      0.252570000000     0.096290000000     0.006320000000    -0.18586    
N47      N      0.254710000000     0.162040000000     0.005470000000    -0.211851   
N48      N      0.304100000000     0.159740000000     0.533320000000    -0.213909   
N49      N      0.251560000000     0.505510000000     0.911570000000    -0.181903   
N50      N      0.250720000000     0.505210000000     0.845800000000    -0.209331   
N51      N      0.205530000000     0.470940000000     0.847620000000    -0.214231   
N52      N      0.254510000000     0.501580000000     0.661450000000    -0.18237    
N53      N      0.254670000000     0.000460000000     0.595730000000    -0.213046   
N54      N      0.223470000000     0.453130000000     0.597430000000    -0.214344   
N55      N      0.002230000000     0.254390000000     0.845350000000    -0.185196   
N56      N      0.000340000000     0.254860000000     0.911050000000    -0.212329   
N57      N      0.454700000000     0.221220000000     0.908950000000    -0.213999   
N58      N      0.004150000000     0.254580000000     0.660830000000    -0.184611   
N59      N      0.006190000000     0.253660000000     0.595100000000    -0.21312    
N60      N      0.056010000000     0.280690000000     0.597270000000    -0.21392    
N61      N      0.161490000000     0.003420000000     0.754020000000    -0.185192   
N62      N      0.095700000000     0.502150000000     0.753730000000    -0.209879   
N63      N      0.097580000000     0.454760000000     0.784960000000    -0.214087   
N64      N      0.411420000000     0.505580000000     0.752030000000    -0.182443   
N65      N      0.345770000000     0.003340000000     0.755030000000    -0.211613   
N66      N      0.348070000000     0.034270000000     0.802560000000    -0.213878   
N67      N      0.501920000000     0.346940000000     0.751920000000    -0.182626   
N68      N      0.503610000000     0.412700000000     0.752240000000    -0.209934   
N69      N      0.053470000000     0.410470000000     0.725190000000    -0.214298   
N70      N      0.505390000000     0.162440000000     0.753410000000    -0.18284    
N71      N      0.506350000000     0.096740000000     0.752620000000    -0.20921    
N72      N      0.052600000000     0.098930000000     0.719830000000    -0.215005   
N73      N      0.411240000000     0.756480000000     0.504680000000    -0.183014   
N74      N      0.345420000000     0.757010000000     0.005170000000    -0.211914   
N75      N      0.347210000000     0.806110000000     0.033720000000    -0.214176   
N76      N      0.161290000000     0.752720000000     0.002010000000    -0.185651   
N77      N      0.095530000000     0.751760000000     0.499780000000    -0.209544   
N78      N      0.097940000000     0.783450000000     0.452760000000    -0.214133   
N79      N      0.254680000000     0.911770000000     0.502500000000    -0.18262    
N80      N      0.255500000000     0.845960000000     0.502910000000    -0.209663   
N81      N      0.304510000000     0.847610000000     0.474200000000    -0.214076   
N82      N      0.252570000000     0.596290000000     0.506320000000    -0.182275   
N83      N      0.254710000000     0.662040000000     0.505470000000    -0.209521   
N84      N      0.304100000000     0.659740000000     0.033320000000    -0.213853   
N85      N      0.251560000000     0.005510000000     0.411570000000    -0.185684   
N86      N      0.250720000000     0.005210000000     0.345800000000    -0.211518   
N87      N      0.205530000000     0.970940000000     0.347620000000    -0.214398   
N88      N      0.254510000000     0.001580000000     0.161450000000    -0.184601   
N89      N      0.254670000000     0.500460000000     0.095730000000    -0.209796   
N90      N      0.223470000000     0.953130000000     0.097430000000    -0.214675   
N91      N      0.002230000000     0.754390000000     0.345350000000    -0.185237   
N92      N      0.000340000000     0.754860000000     0.411050000000    -0.212749   
N93      N      0.454700000000     0.721220000000     0.408950000000    -0.213964   
N94      N      0.004150000000     0.754570000000     0.160830000000    -0.184619   
N95      N      0.006190000000     0.753660000000     0.095100000000    -0.213001   
N96      N      0.056010000000     0.780690000000     0.097260000000    -0.213887   
N97      N      0.161490000000     0.503420000000     0.254020000000    -0.182983   
N98      N      0.095700000000     0.002150000000     0.253730000000    -0.213075   
N99      N      0.097580000000     0.954750000000     0.284960000000    -0.214462   
N100     N      0.411420000000     0.005580000000     0.252030000000    -0.185678   
N101     N      0.345770000000     0.503340000000     0.255030000000    -0.209533   
N102     N      0.348070000000     0.534270000000     0.302560000000    -0.213931   
N103     N      0.501920000000     0.846940000000     0.251920000000    -0.182616   
N104     N      0.503610000000     0.912700000000     0.252240000000    -0.209566   
N105     N      0.053470000000     0.910460000000     0.225180000000    -0.214369   
N106     N      0.505390000000     0.662440000000     0.253410000000    -0.182833   
N107     N      0.506350000000     0.596740000000     0.252620000000    -0.209298   
N108     N      0.052600000000     0.598930000000     0.219830000000    -0.215005   
N109     N      0.411240000000     0.756480000000     0.004680000000    -0.186652   
N110     N      0.345420000000     0.757010000000     0.505170000000    -0.209576   
N111     N      0.347210000000     0.806110000000     0.533720000000    -0.214197   
N112     N      0.161290000000     0.752720000000     0.502010000000    -0.182269   
N113     N      0.095530000000     0.751760000000     0.999780000000    -0.201221   
N114     N      0.097940000000     0.783450000000     0.952760000000    -0.213463   
N115     N      0.254680000000     0.911770000000     0.002500000000    -0.186238   
N116     N      0.255500000000     0.845960000000     0.002910000000    -0.212064   
N117     N      0.304510000000     0.847610000000     0.974200000000    -0.21437    
N118     N      0.252570000000     0.596290000000     0.006320000000    -0.18591    
N119     N      0.254710000000     0.662040000000     0.005470000000    -0.211859   
N120     N      0.304100000000     0.659740000000     0.533320000000    -0.213915   
N121     N      0.251560000000     0.005510000000     0.911570000000    -0.185117   
N122     N      0.250720000000     0.005210000000     0.845800000000    -0.211422   
N123     N      0.205530000000     0.970940000000     0.847620000000    -0.214472   
N124     N      0.254510000000     0.001580000000     0.661450000000    -0.184576   
N125     N      0.254670000000     0.500460000000     0.595730000000    -0.209865   
N126     N      0.223470000000     0.953130000000     0.597430000000    -0.214654   
N127     N      0.002230000000     0.754390000000     0.845350000000    -0.185168   
N128     N      0.000340000000     0.754860000000     0.911050000000    -0.212295   
N129     N      0.454700000000     0.721220000000     0.908950000000    -0.213989   
N130     N      0.004150000000     0.754570000000     0.660830000000    -0.184594   
N131     N      0.006190000000     0.753660000000     0.595100000000    -0.213086   
N132     N      0.056010000000     0.780690000000     0.597270000000    -0.213908   
N133     N      0.161490000000     0.503420000000     0.754020000000    -0.182958   
N134     N      0.095700000000     0.002150000000     0.753730000000    -0.213054   
N135     N      0.097580000000     0.954750000000     0.784960000000    -0.21445    
N136     N      0.411420000000     0.005580000000     0.752030000000    -0.18564    
N137     N      0.345770000000     0.503340000000     0.755030000000    -0.20953    
N138     N      0.348070000000     0.534270000000     0.802560000000    -0.213935   
N139     N      0.501920000000     0.846940000000     0.751920000000    -0.182594   
N140     N      0.503610000000     0.912700000000     0.752240000000    -0.209551   
N141     N      0.053470000000     0.910460000000     0.725190000000    -0.214356   
N142     N      0.505390000000     0.662440000000     0.753410000000    -0.18281    
N143     N      0.506350000000     0.596740000000     0.752620000000    -0.209275   
N144     N      0.052600000000     0.598930000000     0.719830000000    -0.214996   
N145     N      0.911240000000     0.256480000000     0.504680000000    -0.182561   
N146     N      0.845420000000     0.257010000000     0.005170000000    -0.211918   
N147     N      0.847210000000     0.306110000000     0.033720000000    -0.214192   
N148     N      0.661290000000     0.252720000000     0.002010000000    -0.185649   
N149     N      0.595540000000     0.251760000000     0.499780000000    -0.209554   
N150     N      0.597940000000     0.283460000000     0.452760000000    -0.214141   
N151     N      0.754680000000     0.411770000000     0.502500000000    -0.183048   
N152     N      0.755500000000     0.345960000000     0.502910000000    -0.209671   
N153     N      0.804510000000     0.347610000000     0.474200000000    -0.214152   
N154     N      0.752570000000     0.096290000000     0.506320000000    -0.182175   
N155     N      0.754710000000     0.162040000000     0.505470000000    -0.209514   
N156     N      0.804100000000     0.159740000000     0.033320000000    -0.213874   
N157     N      0.751560000000     0.505510000000     0.411570000000    -0.18243    
N158     N      0.750720000000     0.505210000000     0.345800000000    -0.209405   
N159     N      0.705530000000     0.470940000000     0.347620000000    -0.214156   
N160     N      0.754510000000     0.501580000000     0.161450000000    -0.182372   
N161     N      0.754670000000     0.000460000000     0.095730000000    -0.21285    
N162     N      0.723470000000     0.453130000000     0.097430000000    -0.214363   
N163     N      0.502230000000     0.254390000000     0.345350000000    -0.18307    
N164     N      0.500340000000     0.254860000000     0.411050000000    -0.209522   
N165     N      0.954690000000     0.221220000000     0.408950000000    -0.214326   
N166     N      0.504150000000     0.254580000000     0.160830000000    -0.182479   
N167     N      0.506190000000     0.253660000000     0.095100000000    -0.209827   
N168     N      0.556010000000     0.280690000000     0.097260000000    -0.213874   
N169     N      0.661490000000     0.003420000000     0.254020000000    -0.185285   
N170     N      0.595700000000     0.502150000000     0.253730000000    -0.209967   
N171     N      0.597580000000     0.454760000000     0.284960000000    -0.214097   
N172     N      0.911420000000     0.505580000000     0.252030000000    -0.18198    
N173     N      0.845770000000     0.003340000000     0.255030000000    -0.211601   
N174     N      0.848070000000     0.034270000000     0.302560000000    -0.213875   
N175     N      0.001920000000     0.346940000000     0.251920000000    -0.184805   
N176     N      0.003610000000     0.412700000000     0.252240000000    -0.213162   
N177     N      0.553470000000     0.410470000000     0.225180000000    -0.214285   
N178     N      0.005390000000     0.162440000000     0.253410000000    -0.185027   
N179     N      0.006350000000     0.096740000000     0.252620000000    -0.212467   
N180     N      0.552610000000     0.098930000000     0.219830000000    -0.215009   
N181     N      0.911240000000     0.256480000000     0.004680000000    -0.186189   
N182     N      0.845420000000     0.257010000000     0.505170000000    -0.209586   
N183     N      0.847210000000     0.306110000000     0.533720000000    -0.214213   
N184     N      0.661290000000     0.252720000000     0.502010000000    -0.182262   
N185     N      0.595540000000     0.251760000000     0.999780000000    -0.201221   
N186     N      0.597940000000     0.283460000000     0.952760000000    -0.21347    
N187     N      0.754680000000     0.411770000000     0.002500000000    -0.186672   
N188     N      0.755500000000     0.345960000000     0.002910000000    -0.212074   
N189     N      0.804510000000     0.347610000000     0.974200000000    -0.214447   
N190     N      0.752570000000     0.096290000000     0.006320000000    -0.185804   
N191     N      0.754710000000     0.162040000000     0.005470000000    -0.211847   
N192     N      0.804100000000     0.159740000000     0.533320000000    -0.213937   
N193     N      0.751560000000     0.505510000000     0.911570000000    -0.18188    
N194     N      0.750720000000     0.505210000000     0.845800000000    -0.209317   
N195     N      0.705530000000     0.470940000000     0.847620000000    -0.21423    
N196     N      0.754510000000     0.501580000000     0.661450000000    -0.182349   
N197     N      0.754670000000     0.000460000000     0.595730000000    -0.212917   
N198     N      0.723470000000     0.453130000000     0.597430000000    -0.214341   
N199     N      0.502230000000     0.254390000000     0.845350000000    -0.183011   
N200     N      0.500340000000     0.254860000000     0.911050000000    -0.209083   
N201     N      0.954690000000     0.221220000000     0.908950000000    -0.214349   
N202     N      0.504150000000     0.254580000000     0.660830000000    -0.182456   
N203     N      0.506190000000     0.253660000000     0.595100000000    -0.209915   
N204     N      0.556010000000     0.280690000000     0.597270000000    -0.213895   
N205     N      0.661490000000     0.003420000000     0.754020000000    -0.185254   
N206     N      0.595700000000     0.502150000000     0.753730000000    -0.209953   
N207     N      0.597580000000     0.454760000000     0.784960000000    -0.214086   
N208     N      0.911420000000     0.505580000000     0.752030000000    -0.18195    
N209     N      0.845770000000     0.003340000000     0.755030000000    -0.211593   
N210     N      0.848070000000     0.034270000000     0.802560000000    -0.213879   
N211     N      0.001920000000     0.346940000000     0.751920000000    -0.184776   
N212     N      0.003610000000     0.412700000000     0.752240000000    -0.213136   
N213     N      0.553470000000     0.410470000000     0.725190000000    -0.214273   
N214     N      0.005390000000     0.162440000000     0.753410000000    -0.184998   
N215     N      0.006350000000     0.096740000000     0.752620000000    -0.212435   
N216     N      0.552610000000     0.098930000000     0.719830000000    -0.215      
N217     N      0.911240000000     0.756480000000     0.504680000000    -0.182526   
N218     N      0.845420000000     0.757010000000     0.005170000000    -0.211916   
N219     N      0.847210000000     0.806110000000     0.033720000000    -0.21419    
N220     N      0.661290000000     0.752720000000     0.002010000000    -0.18562    
N221     N      0.595540000000     0.751760000000     0.499780000000    -0.20954    
N222     N      0.597940000000     0.783450000000     0.452760000000    -0.21412    
N223     N      0.754680000000     0.911770000000     0.502500000000    -0.182572   
N224     N      0.755500000000     0.845960000000     0.502910000000    -0.209667   
N225     N      0.804510000000     0.847610000000     0.474200000000    -0.214089   
N226     N      0.752570000000     0.596290000000     0.506320000000    -0.182227   
N227     N      0.754710000000     0.662040000000     0.505470000000    -0.209522   
N228     N      0.804100000000     0.659740000000     0.033320000000    -0.213881   
N229     N      0.751560000000     0.005510000000     0.411570000000    -0.185653   
N230     N      0.750720000000     0.005210000000     0.345800000000    -0.211501   
N231     N      0.705530000000     0.970940000000     0.347620000000    -0.214397   
N232     N      0.754510000000     0.001580000000     0.161450000000    -0.184576   
N233     N      0.754670000000     0.500460000000     0.095730000000    -0.209674   
N234     N      0.723470000000     0.953130000000     0.097430000000    -0.214672   
N235     N      0.502230000000     0.754390000000     0.345350000000    -0.183046   
N236     N      0.500340000000     0.754860000000     0.411050000000    -0.209494   
N237     N      0.954690000000     0.721220000000     0.408950000000    -0.214316   
N238     N      0.504150000000     0.754570000000     0.160830000000    -0.182466   
N239     N      0.506190000000     0.753660000000     0.095100000000    -0.2098     
N240     N      0.556010000000     0.780690000000     0.097260000000    -0.213862   
N241     N      0.661490000000     0.503420000000     0.254020000000    -0.183048   
N242     N      0.595700000000     0.002150000000     0.253730000000    -0.213148   
N243     N      0.597580000000     0.954750000000     0.284960000000    -0.214461   
N244     N      0.911420000000     0.005580000000     0.252030000000    -0.185169   
N245     N      0.845770000000     0.503340000000     0.255030000000    -0.209522   
N246     N      0.848070000000     0.534270000000     0.302560000000    -0.213932   
N247     N      0.001920000000     0.846940000000     0.251920000000    -0.184764   
N248     N      0.003610000000     0.912700000000     0.252240000000    -0.212763   
N249     N      0.553470000000     0.910460000000     0.225180000000    -0.214344   
N250     N      0.005390000000     0.662440000000     0.253410000000    -0.184995   
N251     N      0.006350000000     0.596740000000     0.252620000000    -0.21253    
N252     N      0.552610000000     0.598930000000     0.219830000000    -0.214999   
N253     N      0.911240000000     0.756480000000     0.004680000000    -0.186147   
N254     N      0.845420000000     0.757010000000     0.505170000000    -0.209588   
N255     N      0.847210000000     0.806110000000     0.533720000000    -0.21421    
N256     N      0.661290000000     0.752720000000     0.502010000000    -0.18224    
N257     N      0.595540000000     0.751760000000     0.999780000000    -0.201226   
N258     N      0.597940000000     0.783450000000     0.952760000000    -0.21345    
N259     N      0.754680000000     0.911770000000     0.002500000000    -0.186181   
N260     N      0.755500000000     0.845960000000     0.002910000000    -0.21206    
N261     N      0.804510000000     0.847610000000     0.974200000000    -0.214382   
N262     N      0.752570000000     0.596290000000     0.006320000000    -0.185854   
N263     N      0.754710000000     0.662040000000     0.005470000000    -0.211855   
N264     N      0.804100000000     0.659740000000     0.533320000000    -0.213943   
N265     N      0.751560000000     0.005510000000     0.911570000000    -0.185087   
N266     N      0.750720000000     0.005210000000     0.845800000000    -0.211405   
N267     N      0.705530000000     0.970940000000     0.847620000000    -0.214472   
N268     N      0.754510000000     0.001580000000     0.661450000000    -0.184551   
N269     N      0.754670000000     0.500460000000     0.595730000000    -0.209742   
N270     N      0.723470000000     0.953130000000     0.597430000000    -0.21465    
N271     N      0.502230000000     0.754390000000     0.845350000000    -0.182987   
N272     N      0.500340000000     0.754860000000     0.911050000000    -0.209057   
N273     N      0.954690000000     0.721220000000     0.908950000000    -0.214339   
N274     N      0.504150000000     0.754570000000     0.660830000000    -0.182442   
N275     N      0.506190000000     0.753660000000     0.595100000000    -0.209888   
N276     N      0.556010000000     0.780690000000     0.597270000000    -0.213884   
N277     N      0.661490000000     0.503420000000     0.754020000000    -0.183023   
N278     N      0.595700000000     0.002150000000     0.753730000000    -0.213127   
N279     N      0.597580000000     0.954750000000     0.784960000000    -0.214449   
N280     N      0.911420000000     0.005580000000     0.752030000000    -0.185131   
N281     N      0.845770000000     0.503340000000     0.755030000000    -0.209518   
N282     N      0.848070000000     0.534270000000     0.802560000000    -0.213936   
N283     N      0.001920000000     0.846940000000     0.751920000000    -0.184735   
N284     N      0.003610000000     0.912700000000     0.752240000000    -0.212739   
N285     N      0.553470000000     0.910460000000     0.725190000000    -0.214331   
N286     N      0.005390000000     0.662440000000     0.753410000000    -0.184967   
N287     N      0.006350000000     0.596740000000     0.752620000000    -0.212498   
N288     N      0.552610000000     0.598930000000     0.719830000000    -0.21499    
O1       O      0.003730000000     0.049690000000     0.226030000000    -0.555469   
O2       O      0.505670000000     0.459930000000     0.226000000000    -0.557353   
O3       O      0.459030000000     0.003220000000     0.225560000000    -0.549703   
O4       O      0.049040000000     0.506170000000     0.226740000000    -0.559124   
O5       O      0.047930000000     0.001630000000     0.279430000000    -0.557697   
O6       O      0.458540000000     0.507650000000     0.278230000000    -0.560007   
O7       O      0.000010000000     0.459780000000     0.278610000000    -0.559078   
O8       O      0.505220000000     0.049550000000     0.278960000000    -0.554702   
O9       O      0.028700000000     0.300060000000     0.252400000000    -0.558977   
O10      O      0.030610000000     0.210480000000     0.252770000000    -0.553674   
O11      O      0.029920000000     0.255730000000     0.208390000000    -0.55709    
O12      O      0.029200000000     0.256170000000     0.298200000000    -0.551859   
O13      O      0.476410000000     0.253330000000     0.297940000000    -0.556682   
O14      O      0.477140000000     0.253210000000     0.208110000000    -0.551163   
O15      O      0.477780000000     0.208980000000     0.253930000000    -0.5543     
O16      O      0.475880000000     0.299020000000     0.253510000000    -0.548699   
O17      O      0.298470000000     0.476940000000     0.252340000000    -0.553912   
O18      O      0.208750000000     0.477220000000     0.256160000000    -0.560439   
O19      O      0.251560000000     0.476280000000     0.209360000000    -0.554369   
O20      O      0.254180000000     0.477920000000     0.299150000000    -0.556799   
O21      O      0.252240000000     0.030800000000     0.298120000000    -0.554272   
O22      O      0.256680000000     0.028870000000     0.208330000000    -0.551124   
O23      O      0.209000000000     0.029790000000     0.250700000000    -0.549337   
O24      O      0.298710000000     0.029740000000     0.255690000000    -0.556265   
O25      O      0.280420000000     0.502150000000     0.048240000000    -0.554911   
O26      O      0.278710000000     0.008090000000     0.458510000000    -0.553547   
O27      O      0.279040000000     0.049190000000     0.006780000000    -0.557764   
O28      O      0.280160000000     0.459750000000     0.500070000000    -0.553813   
O29      O      0.227600000000     0.458610000000     0.005310000000    -0.558681   
O30      O      0.226330000000     0.048560000000     0.503230000000    -0.548659   
O31      O      0.226210000000     0.502180000000     0.459360000000    -0.554574   
O32      O      0.227510000000     0.003410000000     0.049110000000    -0.556922   
O33      O      0.501460000000     0.227680000000     0.047930000000    -0.554995   
O34      O      0.002560000000     0.228100000000     0.458070000000    -0.557741   
O35      O      0.047600000000     0.226640000000     0.003970000000    -0.551445   
O36      O      0.457820000000     0.229080000000     0.501990000000    -0.559598   
O37      O      0.459480000000     0.281710000000     0.006460000000    -0.551297   
O38      O      0.049110000000     0.279370000000     0.500000000000    -0.559107   
O39      O      0.502110000000     0.281020000000     0.458370000000    -0.557973   
O40      O      0.007740000000     0.280210000000     0.048020000000    -0.556382   
O41      O      0.257060000000     0.209710000000     0.031030000000    -0.552335   
O42      O      0.249050000000     0.299180000000     0.029350000000    -0.55381    
O43      O      0.208150000000     0.250170000000     0.029430000000    -0.548012   
O44      O      0.297710000000     0.258750000000     0.030970000000    -0.55325    
O45      O      0.298700000000     0.250410000000     0.478760000000    -0.558579   
O46      O      0.209230000000     0.256860000000     0.477030000000    -0.554424   
O47      O      0.257490000000     0.298320000000     0.477160000000    -0.556987   
O48      O      0.250530000000     0.208760000000     0.478550000000    -0.555315   
O49      O      0.003730000000     0.049690000000     0.726030000000    -0.555434   
O50      O      0.505670000000     0.459930000000     0.726000000000    -0.557322   
O51      O      0.459030000000     0.003220000000     0.725560000000    -0.549658   
O52      O      0.049040000000     0.506170000000     0.726740000000    -0.558983   
O53      O      0.047930000000     0.001630000000     0.779430000000    -0.557705   
O54      O      0.458540000000     0.507650000000     0.778230000000    -0.559929   
O55      O      0.000010000000     0.459780000000     0.778610000000    -0.558975   
O56      O      0.505220000000     0.049550000000     0.778960000000    -0.554595   
O57      O      0.028700000000     0.300060000000     0.752400000000    -0.558953   
O58      O      0.030610000000     0.210480000000     0.752770000000    -0.553632   
O59      O      0.029920000000     0.255730000000     0.708390000000    -0.557085   
O60      O      0.029200000000     0.256170000000     0.798200000000    -0.551785   
O61      O      0.476410000000     0.253330000000     0.797940000000    -0.55661    
O62      O      0.477140000000     0.253210000000     0.708110000000    -0.55115    
O63      O      0.477780000000     0.208980000000     0.753930000000    -0.554274   
O64      O      0.475880000000     0.299020000000     0.753510000000    -0.548662   
O65      O      0.298470000000     0.476940000000     0.752340000000    -0.553872   
O66      O      0.208750000000     0.477220000000     0.756160000000    -0.560432   
O67      O      0.251560000000     0.476280000000     0.709360000000    -0.55439    
O68      O      0.254180000000     0.477920000000     0.799150000000    -0.55681    
O69      O      0.252240000000     0.030800000000     0.798120000000    -0.554228   
O70      O      0.256680000000     0.028870000000     0.708320000000    -0.550976   
O71      O      0.209000000000     0.029790000000     0.750700000000    -0.549256   
O72      O      0.298710000000     0.029740000000     0.755690000000    -0.556217   
O73      O      0.280420000000     0.502150000000     0.548240000000    -0.556119   
O74      O      0.278710000000     0.008090000000     0.958510000000    -0.547639   
O75      O      0.279040000000     0.049190000000     0.506780000000    -0.557553   
O76      O      0.280160000000     0.459750000000     0.000070000000    -0.555143   
O77      O      0.227600000000     0.458610000000     0.505310000000    -0.558451   
O78      O      0.226330000000     0.048560000000     0.003230000000    -0.549944   
O79      O      0.226210000000     0.502180000000     0.959360000000    -0.548633   
O80      O      0.227510000000     0.003410000000     0.549110000000    -0.558158   
O81      O      0.501460000000     0.227680000000     0.547930000000    -0.556264   
O82      O      0.002560000000     0.228100000000     0.958070000000    -0.551902   
O83      O      0.047600000000     0.226640000000     0.503970000000    -0.552449   
O84      O      0.457820000000     0.229080000000     0.001990000000    -0.560882   
O85      O      0.459480000000     0.281710000000     0.506460000000    -0.551133   
O86      O      0.049110000000     0.279370000000     0.000000000000    -0.558909   
O87      O      0.502110000000     0.281020000000     0.958370000000    -0.552061   
O88      O      0.007740000000     0.280210000000     0.548020000000    -0.557729   
O89      O      0.257060000000     0.209710000000     0.531030000000    -0.554873   
O90      O      0.249050000000     0.299180000000     0.529350000000    -0.556328   
O91      O      0.208150000000     0.250170000000     0.529430000000    -0.55037    
O92      O      0.297710000000     0.258750000000     0.530970000000    -0.555875   
O93      O      0.298700000000     0.250410000000     0.978760000000    -0.552373   
O94      O      0.209230000000     0.256860000000     0.977030000000    -0.54829    
O95      O      0.257490000000     0.298320000000     0.977160000000    -0.550898   
O96      O      0.250530000000     0.208760000000     0.978550000000    -0.549027   
O97      O      0.003730000000     0.549690000000     0.226030000000    -0.55657    
O98      O      0.505670000000     0.959930000000     0.226000000000    -0.552197   
O99      O      0.459030000000     0.503220000000     0.225560000000    -0.5486     
O100     O      0.049040000000     0.006170000000     0.226740000000    -0.559501   
O101     O      0.047930000000     0.501630000000     0.279430000000    -0.556546   
O102     O      0.458540000000     0.007650000000     0.278230000000    -0.56014    
O103     O      0.000010000000     0.959780000000     0.278610000000    -0.553892   
O104     O      0.505220000000     0.549550000000     0.278960000000    -0.555804   
O105     O      0.028700000000     0.800060000000     0.252400000000    -0.559124   
O106     O      0.030610000000     0.710480000000     0.252770000000    -0.553493   
O107     O      0.029920000000     0.755730000000     0.208390000000    -0.557083   
O108     O      0.029200000000     0.756170000000     0.298200000000    -0.551849   
O109     O      0.476410000000     0.753330000000     0.297940000000    -0.556644   
O110     O      0.477140000000     0.753210000000     0.208110000000    -0.551123   
O111     O      0.477780000000     0.708980000000     0.253930000000    -0.554262   
O112     O      0.475880000000     0.799020000000     0.253510000000    -0.548648   
O113     O      0.298470000000     0.976940000000     0.252340000000    -0.548253   
O114     O      0.208750000000     0.977230000000     0.256160000000    -0.555365   
O115     O      0.251560000000     0.976290000000     0.209360000000    -0.549114   
O116     O      0.254180000000     0.977920000000     0.299150000000    -0.551292   
O117     O      0.252240000000     0.530800000000     0.298120000000    -0.556453   
O118     O      0.256680000000     0.528870000000     0.208330000000    -0.553206   
O119     O      0.209000000000     0.529790000000     0.250700000000    -0.551356   
O120     O      0.298710000000     0.529740000000     0.255690000000    -0.558561   
O121     O      0.280420000000     0.002150000000     0.048240000000    -0.555415   
O122     O      0.278710000000     0.508090000000     0.458510000000    -0.553371   
O123     O      0.279040000000     0.549190000000     0.006780000000    -0.558932   
O124     O      0.280160000000     0.959750000000     0.500070000000    -0.548535   
O125     O      0.227600000000     0.958610000000     0.005310000000    -0.553622   
O126     O      0.226330000000     0.548560000000     0.503230000000    -0.549705   
O127     O      0.226210000000     0.002180000000     0.459360000000    -0.555722   
O128     O      0.227510000000     0.503410000000     0.049110000000    -0.556014   
O129     O      0.501460000000     0.727680000000     0.047930000000    -0.554926   
O130     O      0.002560000000     0.728100000000     0.458070000000    -0.557674   
O131     O      0.047600000000     0.726640000000     0.003970000000    -0.55137    
O132     O      0.457820000000     0.729090000000     0.501990000000    -0.559662   
O133     O      0.459480000000     0.781720000000     0.006460000000    -0.551039   
O134     O      0.049110000000     0.779370000000     0.500000000000    -0.559011   
O135     O      0.502110000000     0.781020000000     0.458370000000    -0.557835   
O136     O      0.007740000000     0.780210000000     0.048020000000    -0.55626    
O137     O      0.257060000000     0.709710000000     0.031030000000    -0.552328   
O138     O      0.249050000000     0.799180000000     0.029350000000    -0.553763   
O139     O      0.208150000000     0.750170000000     0.029430000000    -0.547989   
O140     O      0.297710000000     0.758750000000     0.030970000000    -0.553235   
O141     O      0.298700000000     0.750410000000     0.478760000000    -0.558558   
O142     O      0.209230000000     0.756860000000     0.477030000000    -0.554392   
O143     O      0.257490000000     0.798320000000     0.477160000000    -0.556929   
O144     O      0.250530000000     0.708760000000     0.478550000000    -0.5553     
O145     O      0.003730000000     0.549690000000     0.726030000000    -0.556533   
O146     O      0.505670000000     0.959930000000     0.726000000000    -0.552177   
O147     O      0.459030000000     0.503220000000     0.725560000000    -0.548556   
O148     O      0.049040000000     0.006170000000     0.726740000000    -0.559361   
O149     O      0.047930000000     0.501630000000     0.779430000000    -0.556558   
O150     O      0.458540000000     0.007650000000     0.778230000000    -0.560062   
O151     O      0.000010000000     0.959780000000     0.778610000000    -0.553804   
O152     O      0.505220000000     0.549550000000     0.778960000000    -0.555695   
O153     O      0.028700000000     0.800060000000     0.752400000000    -0.5591     
O154     O      0.030610000000     0.710480000000     0.752770000000    -0.553451   
O155     O      0.029920000000     0.755730000000     0.708390000000    -0.557078   
O156     O      0.029200000000     0.756170000000     0.798200000000    -0.551776   
O157     O      0.476410000000     0.753330000000     0.797940000000    -0.556573   
O158     O      0.477140000000     0.753210000000     0.708110000000    -0.55111    
O159     O      0.477780000000     0.708980000000     0.753930000000    -0.554236   
O160     O      0.475880000000     0.799020000000     0.753510000000    -0.548611   
O161     O      0.298470000000     0.976940000000     0.752340000000    -0.548227   
O162     O      0.208750000000     0.977230000000     0.756160000000    -0.555371   
O163     O      0.251560000000     0.976290000000     0.709360000000    -0.549146   
O164     O      0.254180000000     0.977920000000     0.799150000000    -0.55132    
O165     O      0.252240000000     0.530800000000     0.798120000000    -0.556405   
O166     O      0.256680000000     0.528870000000     0.708320000000    -0.553054   
O167     O      0.209000000000     0.529790000000     0.750700000000    -0.551271   
O168     O      0.298710000000     0.529740000000     0.755690000000    -0.558507   
O169     O      0.280420000000     0.002150000000     0.548240000000    -0.556622   
O170     O      0.278710000000     0.508090000000     0.958510000000    -0.547462   
O171     O      0.279040000000     0.549190000000     0.506780000000    -0.558722   
O172     O      0.280160000000     0.959750000000     0.000070000000    -0.54986    
O173     O      0.227600000000     0.958610000000     0.505310000000    -0.553393   
O174     O      0.226330000000     0.548560000000     0.003230000000    -0.550989   
O175     O      0.226210000000     0.002180000000     0.959360000000    -0.549779   
O176     O      0.227510000000     0.503410000000     0.549110000000    -0.557251   
O177     O      0.501460000000     0.727680000000     0.547930000000    -0.556194   
O178     O      0.002560000000     0.728100000000     0.958070000000    -0.551846   
O179     O      0.047600000000     0.726640000000     0.503970000000    -0.552371   
O180     O      0.457820000000     0.729090000000     0.001990000000    -0.560943   
O181     O      0.459480000000     0.781720000000     0.506460000000    -0.550873   
O182     O      0.049110000000     0.779370000000     0.000000000000    -0.558814   
O183     O      0.502110000000     0.781020000000     0.958370000000    -0.55194    
O184     O      0.007740000000     0.780210000000     0.548020000000    -0.557604   
O185     O      0.257060000000     0.709710000000     0.531030000000    -0.554862   
O186     O      0.249050000000     0.799180000000     0.529350000000    -0.556276   
O187     O      0.208150000000     0.750170000000     0.529430000000    -0.550343   
O188     O      0.297710000000     0.758750000000     0.530970000000    -0.555855   
O189     O      0.298700000000     0.750410000000     0.978760000000    -0.552365   
O190     O      0.209230000000     0.756860000000     0.977030000000    -0.548273   
O191     O      0.257490000000     0.798320000000     0.977160000000    -0.550859   
O192     O      0.250530000000     0.708760000000     0.978550000000    -0.549021   
O193     O      0.503730000000     0.049690000000     0.226030000000    -0.554958   
O194     O      0.005670000000     0.459930000000     0.226000000000    -0.557683   
O195     O      0.959030000000     0.003220000000     0.225560000000    -0.544354   
O196     O      0.549040000000     0.506170000000     0.226740000000    -0.5603     
O197     O      0.547930000000     0.001630000000     0.279430000000    -0.558827   
O198     O      0.958540000000     0.507650000000     0.278230000000    -0.554698   
O199     O      0.500010000000     0.459780000000     0.278610000000    -0.558114   
O200     O      0.005220000000     0.049550000000     0.278960000000    -0.555567   
O201     O      0.528700000000     0.300060000000     0.252400000000    -0.561327   
O202     O      0.530610000000     0.210480000000     0.252770000000    -0.555879   
O203     O      0.529920000000     0.255730000000     0.208390000000    -0.559432   
O204     O      0.529200000000     0.256170000000     0.298200000000    -0.553932   
O205     O      0.976410000000     0.253330000000     0.297940000000    -0.551049   
O206     O      0.977140000000     0.253210000000     0.208110000000    -0.545452   
O207     O      0.977780000000     0.208980000000     0.253930000000    -0.548754   
O208     O      0.975880000000     0.299020000000     0.253510000000    -0.542991   
O209     O      0.798470000000     0.476940000000     0.252340000000    -0.553823   
O210     O      0.708750000000     0.477220000000     0.256160000000    -0.560355   
O211     O      0.751560000000     0.476280000000     0.209360000000    -0.554334   
O212     O      0.754180000000     0.477920000000     0.299150000000    -0.556762   
O213     O      0.752240000000     0.030800000000     0.298120000000    -0.554257   
O214     O      0.756680000000     0.028870000000     0.208330000000    -0.551094   
O215     O      0.709000000000     0.029790000000     0.250700000000    -0.549242   
O216     O      0.798710000000     0.029740000000     0.255690000000    -0.556212   
O217     O      0.780430000000     0.502150000000     0.048240000000    -0.554403   
O218     O      0.778710000000     0.008090000000     0.458510000000    -0.553487   
O219     O      0.779040000000     0.049190000000     0.006780000000    -0.557609   
O220     O      0.780160000000     0.459750000000     0.500070000000    -0.553634   
O221     O      0.727600000000     0.458610000000     0.005310000000    -0.558573   
O222     O      0.726330000000     0.048560000000     0.503230000000    -0.548527   
O223     O      0.726210000000     0.502180000000     0.459360000000    -0.554333   
O224     O      0.727510000000     0.003410000000     0.049110000000    -0.556845   
O225     O      0.001460000000     0.227680000000     0.047930000000    -0.555978   
O226     O      0.502560000000     0.228100000000     0.458070000000    -0.556737   
O227     O      0.547600000000     0.226640000000     0.003970000000    -0.552507   
O228     O      0.957820000000     0.229080000000     0.501990000000    -0.554421   
O229     O      0.959480000000     0.281710000000     0.006460000000    -0.545947   
O230     O      0.549110000000     0.279370000000     0.500000000000    -0.560266   
O231     O      0.002110000000     0.281020000000     0.458370000000    -0.558434   
O232     O      0.507740000000     0.280210000000     0.048020000000    -0.556087   
O233     O      0.757060000000     0.209710000000     0.031030000000    -0.552283   
O234     O      0.749050000000     0.299180000000     0.029350000000    -0.553759   
O235     O      0.708150000000     0.250170000000     0.029430000000    -0.547931   
O236     O      0.797720000000     0.258750000000     0.030970000000    -0.553102   
O237     O      0.798700000000     0.250410000000     0.478760000000    -0.558734   
O238     O      0.709230000000     0.256860000000     0.477030000000    -0.554243   
O239     O      0.757490000000     0.298320000000     0.477160000000    -0.556992   
O240     O      0.750530000000     0.208760000000     0.478550000000    -0.555275   
O241     O      0.503730000000     0.049690000000     0.726030000000    -0.554923   
O242     O      0.005670000000     0.459930000000     0.726000000000    -0.557652   
O243     O      0.959030000000     0.003220000000     0.725560000000    -0.544321   
O244     O      0.549040000000     0.506170000000     0.726740000000    -0.560158   
O245     O      0.547930000000     0.001630000000     0.779430000000    -0.558833   
O246     O      0.958540000000     0.507650000000     0.778230000000    -0.554637   
O247     O      0.500010000000     0.459780000000     0.778610000000    -0.558013   
O248     O      0.005220000000     0.049550000000     0.778960000000    -0.555458   
O249     O      0.528700000000     0.300060000000     0.752400000000    -0.561297   
O250     O      0.530610000000     0.210480000000     0.752770000000    -0.555832   
O251     O      0.529920000000     0.255730000000     0.708390000000    -0.559422   
O252     O      0.529200000000     0.256170000000     0.798200000000    -0.553852   
O253     O      0.976410000000     0.253330000000     0.797940000000    -0.550996   
O254     O      0.977140000000     0.253210000000     0.708110000000    -0.54545    
O255     O      0.977780000000     0.208980000000     0.753930000000    -0.548743   
O256     O      0.975880000000     0.299020000000     0.753510000000    -0.54297    
O257     O      0.798470000000     0.476940000000     0.752340000000    -0.553783   
O258     O      0.708750000000     0.477220000000     0.756160000000    -0.560348   
O259     O      0.751560000000     0.476280000000     0.709360000000    -0.554356   
O260     O      0.754180000000     0.477920000000     0.799150000000    -0.556774   
O261     O      0.752240000000     0.030800000000     0.798120000000    -0.554213   
O262     O      0.756680000000     0.028870000000     0.708320000000    -0.550947   
O263     O      0.709000000000     0.029790000000     0.750700000000    -0.549162   
O264     O      0.798710000000     0.029740000000     0.755690000000    -0.556164   
O265     O      0.780430000000     0.502150000000     0.548240000000    -0.555607   
O266     O      0.778710000000     0.008090000000     0.958510000000    -0.547597   
O267     O      0.779040000000     0.049190000000     0.506780000000    -0.557398   
O268     O      0.780160000000     0.459750000000     0.000070000000    -0.554961   
O269     O      0.727600000000     0.458610000000     0.505310000000    -0.558343   
O270     O      0.726330000000     0.048560000000     0.003230000000    -0.549811   
O271     O      0.726210000000     0.502180000000     0.959360000000    -0.548405   
O272     O      0.727510000000     0.003410000000     0.549110000000    -0.558078   
O273     O      0.001460000000     0.227680000000     0.547930000000    -0.557247   
O274     O      0.502560000000     0.228100000000     0.958070000000    -0.550903   
O275     O      0.547600000000     0.226640000000     0.503970000000    -0.553509   
O276     O      0.957820000000     0.229080000000     0.001990000000    -0.555695   
O277     O      0.959480000000     0.281710000000     0.506460000000    -0.545785   
O278     O      0.549110000000     0.279370000000     0.000000000000    -0.560069   
O279     O      0.002110000000     0.281020000000     0.958370000000    -0.552521   
O280     O      0.507740000000     0.280210000000     0.548020000000    -0.557434   
O281     O      0.757060000000     0.209710000000     0.531030000000    -0.554815   
O282     O      0.749050000000     0.299180000000     0.529350000000    -0.556271   
O283     O      0.708150000000     0.250170000000     0.529430000000    -0.550285   
O284     O      0.797720000000     0.258750000000     0.530970000000    -0.55572    
O285     O      0.798700000000     0.250410000000     0.978760000000    -0.552548   
O286     O      0.709230000000     0.256860000000     0.977030000000    -0.54812    
O287     O      0.757490000000     0.298320000000     0.977160000000    -0.550919   
O288     O      0.750530000000     0.208760000000     0.978550000000    -0.549002   
O289     O      0.503730000000     0.549690000000     0.226030000000    -0.556059   
O290     O      0.005670000000     0.959930000000     0.226000000000    -0.552527   
O291     O      0.959030000000     0.503220000000     0.225560000000    -0.543254   
O292     O      0.549040000000     0.006170000000     0.226740000000    -0.560676   
O293     O      0.547930000000     0.501630000000     0.279430000000    -0.557677   
O294     O      0.958540000000     0.007650000000     0.278230000000    -0.554831   
O295     O      0.500010000000     0.959780000000     0.278610000000    -0.55293    
O296     O      0.005220000000     0.549550000000     0.278960000000    -0.556668   
O297     O      0.528700000000     0.800060000000     0.252400000000    -0.561469   
O298     O      0.530610000000     0.710480000000     0.252770000000    -0.555693   
O299     O      0.529920000000     0.755730000000     0.208390000000    -0.559419   
O300     O      0.529200000000     0.756170000000     0.298200000000    -0.553918   
O301     O      0.976410000000     0.753330000000     0.297940000000    -0.551024   
O302     O      0.977140000000     0.753210000000     0.208110000000    -0.545426   
O303     O      0.977780000000     0.708980000000     0.253930000000    -0.548725   
O304     O      0.975880000000     0.799020000000     0.253510000000    -0.542958   
O305     O      0.798470000000     0.976940000000     0.252340000000    -0.548183   
O306     O      0.708750000000     0.977230000000     0.256160000000    -0.555292   
O307     O      0.751560000000     0.976290000000     0.209360000000    -0.549093   
O308     O      0.754180000000     0.977920000000     0.299150000000    -0.551269   
O309     O      0.752240000000     0.530800000000     0.298120000000    -0.556433   
O310     O      0.756680000000     0.528870000000     0.208330000000    -0.553171   
O311     O      0.709000000000     0.529790000000     0.250700000000    -0.551255   
O312     O      0.798710000000     0.529740000000     0.255690000000    -0.558502   
O313     O      0.780430000000     0.002150000000     0.048240000000    -0.554907   
O314     O      0.778710000000     0.508090000000     0.458510000000    -0.553311   
O315     O      0.779040000000     0.549190000000     0.006780000000    -0.558774   
O316     O      0.780160000000     0.959750000000     0.500070000000    -0.548372   
O317     O      0.727600000000     0.958610000000     0.005310000000    -0.553525   
O318     O      0.726330000000     0.548560000000     0.503230000000    -0.54957    
O319     O      0.726210000000     0.002180000000     0.459360000000    -0.55548    
O320     O      0.727510000000     0.503410000000     0.049110000000    -0.555938   
O321     O      0.001460000000     0.727680000000     0.047930000000    -0.555908   
O322     O      0.502560000000     0.728100000000     0.458070000000    -0.556672   
O323     O      0.547600000000     0.726640000000     0.003970000000    -0.552431   
O324     O      0.957820000000     0.729090000000     0.501990000000    -0.554494   
O325     O      0.959480000000     0.781720000000     0.006460000000    -0.545704   
O326     O      0.549110000000     0.779370000000     0.500000000000    -0.560168   
O327     O      0.002110000000     0.781020000000     0.458370000000    -0.558295   
O328     O      0.507740000000     0.780210000000     0.048020000000    -0.555965   
O329     O      0.757060000000     0.709710000000     0.031030000000    -0.552276   
O330     O      0.749050000000     0.799180000000     0.029350000000    -0.553712   
O331     O      0.708150000000     0.750170000000     0.029430000000    -0.547909   
O332     O      0.797720000000     0.758750000000     0.030970000000    -0.553087   
O333     O      0.798700000000     0.750410000000     0.478760000000    -0.558712   
O334     O      0.709230000000     0.756860000000     0.477030000000    -0.554212   
O335     O      0.757490000000     0.798320000000     0.477160000000    -0.556935   
O336     O      0.750530000000     0.708760000000     0.478550000000    -0.55526    
O337     O      0.503730000000     0.549690000000     0.726030000000    -0.556022   
O338     O      0.005670000000     0.959930000000     0.726000000000    -0.552507   
O339     O      0.959030000000     0.503220000000     0.725560000000    -0.543223   
O340     O      0.549040000000     0.006170000000     0.726740000000    -0.560534   
O341     O      0.547930000000     0.501630000000     0.779430000000    -0.557687   
O342     O      0.958540000000     0.007650000000     0.778230000000    -0.55477    
O343     O      0.500010000000     0.959780000000     0.778610000000    -0.552845   
O344     O      0.005220000000     0.549550000000     0.778960000000    -0.556556   
O345     O      0.528700000000     0.800060000000     0.752400000000    -0.561439   
O346     O      0.530610000000     0.710480000000     0.752770000000    -0.555646   
O347     O      0.529920000000     0.755730000000     0.708390000000    -0.559409   
O348     O      0.529200000000     0.756170000000     0.798200000000    -0.553838   
O349     O      0.976410000000     0.753330000000     0.797940000000    -0.550972   
O350     O      0.977140000000     0.753210000000     0.708110000000    -0.545425   
O351     O      0.977780000000     0.708980000000     0.753930000000    -0.548715   
O352     O      0.975880000000     0.799020000000     0.753510000000    -0.542937   
O353     O      0.798470000000     0.976940000000     0.752340000000    -0.548157   
O354     O      0.708750000000     0.977230000000     0.756160000000    -0.555298   
O355     O      0.751560000000     0.976290000000     0.709360000000    -0.549124   
O356     O      0.754180000000     0.977920000000     0.799150000000    -0.551297   
O357     O      0.752240000000     0.530800000000     0.798120000000    -0.556385   
O358     O      0.756680000000     0.528870000000     0.708320000000    -0.55302    
O359     O      0.709000000000     0.529790000000     0.750700000000    -0.55117    
O360     O      0.798710000000     0.529740000000     0.755690000000    -0.558448   
O361     O      0.780430000000     0.002150000000     0.548240000000    -0.55611    
O362     O      0.778710000000     0.508090000000     0.958510000000    -0.54742    
O363     O      0.779040000000     0.549190000000     0.506780000000    -0.558564   
O364     O      0.780160000000     0.959750000000     0.000070000000    -0.549694   
O365     O      0.727600000000     0.958610000000     0.505310000000    -0.553295   
O366     O      0.726330000000     0.548560000000     0.003230000000    -0.550853   
O367     O      0.726210000000     0.002180000000     0.959360000000    -0.54955    
O368     O      0.727510000000     0.503410000000     0.549110000000    -0.557173   
O369     O      0.001460000000     0.727680000000     0.547930000000    -0.557175   
O370     O      0.502560000000     0.728100000000     0.958070000000    -0.550848   
O371     O      0.547600000000     0.726640000000     0.503970000000    -0.553429   
O372     O      0.957820000000     0.729090000000     0.001990000000    -0.555767   
O373     O      0.959480000000     0.781720000000     0.506460000000    -0.545542   
O374     O      0.549110000000     0.779370000000     0.000000000000    -0.559972   
O375     O      0.002110000000     0.781020000000     0.958370000000    -0.552399   
O376     O      0.507740000000     0.780210000000     0.548020000000    -0.55731    
O377     O      0.757060000000     0.709710000000     0.531030000000    -0.554804   
O378     O      0.749050000000     0.799180000000     0.529350000000    -0.556219   
O379     O      0.708150000000     0.750170000000     0.529430000000    -0.550258   
O380     O      0.797720000000     0.758750000000     0.530970000000    -0.5557     
O381     O      0.798700000000     0.750410000000     0.978760000000    -0.55254    
O382     O      0.709230000000     0.756860000000     0.977030000000    -0.548102   
O383     O      0.757490000000     0.798320000000     0.977160000000    -0.55088    
O384     O      0.750530000000     0.708760000000     0.978550000000    -0.548996   
V1       V      0.504250000000     0.004780000000     0.223910000000     1.37858    
V2       V      0.502980000000     0.504660000000     0.280950000000     1.40053    
V3       V      0.031690000000     0.255530000000     0.253090000000     1.39616    
V4       V      0.474670000000     0.253720000000     0.253240000000     1.38662    
V5       V      0.253390000000     0.474950000000     0.254270000000     1.39414    
V6       V      0.254070000000     0.031960000000     0.253150000000     1.38246    
V7       V      0.281720000000     0.004730000000     0.003330000000     1.38128    
V8       V      0.224750000000     0.003320000000     0.504270000000     1.38358    
V9       V      0.002430000000     0.225730000000     0.003000000000     1.37742    
V10      V      0.004560000000     0.282730000000     0.503250000000     1.38486    
V11      V      0.252910000000     0.254470000000     0.032460000000     1.37269    
V12      V      0.253980000000     0.253520000000     0.475640000000     1.39463    
V13      V      0.504250000000     0.004780000000     0.723900000000     1.37875    
V14      V      0.502980000000     0.504660000000     0.780950000000     1.40135    
V15      V      0.031690000000     0.255530000000     0.753090000000     1.39622    
V16      V      0.474670000000     0.253720000000     0.753240000000     1.38665    
V17      V      0.253390000000     0.474950000000     0.754270000000     1.39423    
V18      V      0.254070000000     0.031960000000     0.753150000000     1.38221    
V19      V      0.281720000000     0.004730000000     0.503330000000     1.38914    
V20      V      0.224750000000     0.003320000000     0.004270000000     1.37575    
V21      V      0.002430000000     0.225730000000     0.503000000000     1.38571    
V22      V      0.004560000000     0.282730000000     0.003250000000     1.37664    
V23      V      0.252910000000     0.254470000000     0.532460000000     1.3825     
V24      V      0.253980000000     0.253520000000     0.975640000000     1.39948    
V25      V      0.504250000000     0.504780000000     0.223910000000     1.38561    
V26      V      0.502980000000     0.004660000000     0.280950000000     1.39352    
V27      V      0.031690000000     0.755540000000     0.253090000000     1.39621    
V28      V      0.474670000000     0.753720000000     0.253240000000     1.38668    
V29      V      0.253390000000     0.974950000000     0.254270000000     1.39844    
V30      V      0.254070000000     0.531960000000     0.253150000000     1.39109    
V31      V      0.281720000000     0.504730000000     0.003330000000     1.38809    
V32      V      0.224750000000     0.503320000000     0.504270000000     1.39076    
V33      V      0.002430000000     0.725730000000     0.003000000000     1.37754    
V34      V      0.004560000000     0.782730000000     0.503250000000     1.38532    
V35      V      0.252910000000     0.754470000000     0.032460000000     1.37272    
V36      V      0.253980000000     0.753520000000     0.475640000000     1.39466    
V37      V      0.504250000000     0.504780000000     0.723900000000     1.38577    
V38      V      0.502980000000     0.004660000000     0.780950000000     1.39436    
V39      V      0.031690000000     0.755540000000     0.753090000000     1.39627    
V40      V      0.474670000000     0.753720000000     0.753240000000     1.38671    
V41      V      0.253390000000     0.974950000000     0.754270000000     1.39851    
V42      V      0.254070000000     0.531960000000     0.753150000000     1.39082    
V43      V      0.281720000000     0.504730000000     0.503330000000     1.39596    
V44      V      0.224750000000     0.503320000000     0.004270000000     1.38291    
V45      V      0.002430000000     0.725730000000     0.503000000000     1.38582    
V46      V      0.004560000000     0.782730000000     0.003250000000     1.37712    
V47      V      0.252910000000     0.754470000000     0.532460000000     1.38251    
V48      V      0.253980000000     0.753520000000     0.975640000000     1.39949    
V49      V      0.004250000000     0.004780000000     0.223910000000     1.37175    
V50      V      0.002980000000     0.504660000000     0.280950000000     1.39322    
V51      V      0.531690000000     0.255530000000     0.253090000000     1.40503    
V52      V      0.974670000000     0.253720000000     0.253240000000     1.39095    
V53      V      0.753390000000     0.474950000000     0.254270000000     1.39418    
V54      V      0.754070000000     0.031960000000     0.253150000000     1.3825     
V55      V      0.781720000000     0.004730000000     0.003330000000     1.38153    
V56      V      0.724760000000     0.003320000000     0.504270000000     1.38352    
V57      V      0.502430000000     0.225730000000     0.003000000000     1.38475    
V58      V      0.504560000000     0.282730000000     0.503250000000     1.39174    
V59      V      0.752910000000     0.254470000000     0.032460000000     1.37242    
V60      V      0.753990000000     0.253520000000     0.475640000000     1.39472    
V61      V      0.004250000000     0.004780000000     0.723900000000     1.37192    
V62      V      0.002980000000     0.504660000000     0.780950000000     1.39407    
V63      V      0.531690000000     0.255530000000     0.753090000000     1.40506    
V64      V      0.974670000000     0.253720000000     0.753240000000     1.39097    
V65      V      0.753390000000     0.474950000000     0.754270000000     1.39426    
V66      V      0.754070000000     0.031960000000     0.753150000000     1.38225    
V67      V      0.781720000000     0.004730000000     0.503330000000     1.38936    
V68      V      0.724760000000     0.003320000000     0.004270000000     1.3757     
V69      V      0.502430000000     0.225730000000     0.503000000000     1.39306    
V70      V      0.504560000000     0.282730000000     0.003250000000     1.38351    
V71      V      0.752910000000     0.254470000000     0.532460000000     1.38221    
V72      V      0.753990000000     0.253520000000     0.975640000000     1.39955    
V73      V      0.004250000000     0.504780000000     0.223910000000     1.37876    
V74      V      0.002980000000     0.004660000000     0.280950000000     1.38623    
V75      V      0.531690000000     0.755540000000     0.253090000000     1.40505    
V76      V      0.974670000000     0.753720000000     0.253240000000     1.391      
V77      V      0.753390000000     0.974950000000     0.254270000000     1.39846    
V78      V      0.754070000000     0.531960000000     0.253150000000     1.39111    
V79      V      0.781720000000     0.504730000000     0.003330000000     1.38831    
V80      V      0.724760000000     0.503320000000     0.504270000000     1.39069    
V81      V      0.502430000000     0.725730000000     0.003000000000     1.38486    
V82      V      0.504560000000     0.782730000000     0.503250000000     1.39219    
V83      V      0.752910000000     0.754470000000     0.032460000000     1.37246    
V84      V      0.753990000000     0.753520000000     0.475640000000     1.39474    
V85      V      0.004250000000     0.504780000000     0.723900000000     1.37893    
V86      V      0.002980000000     0.004660000000     0.780950000000     1.38709    
V87      V      0.531690000000     0.755540000000     0.753090000000     1.40509    
V88      V      0.974670000000     0.753720000000     0.753240000000     1.39101    
V89      V      0.753390000000     0.974950000000     0.754270000000     1.39853    
V90      V      0.754070000000     0.531960000000     0.753150000000     1.39084    
V91      V      0.781720000000     0.504730000000     0.503330000000     1.39616    
V92      V      0.724760000000     0.503320000000     0.004270000000     1.38285    
V93      V      0.502430000000     0.725730000000     0.503000000000     1.39316    
V94      V      0.504560000000     0.782730000000     0.003250000000     1.38398    
V95      V      0.752910000000     0.754470000000     0.532460000000     1.38222    
V96      V      0.753990000000     0.753520000000     0.975640000000     1.39956    


