data_structure

_audit_creation_method RASPA-1.0
_audit_creation_date 2023-5-23
_audit_author_name 'Poobodin Mano'

_cell_length_a    42.1946
_cell_length_b    42.1945
_cell_length_c    42.4359
_cell_angle_alpha 90
_cell_angle_beta  89.9998
_cell_angle_gamma 89.9998
_cell_volume      75552

_symmetry_cell_setting          triclinic
_symmetry_space_group_name_Hall 'P 1'
_symmetry_space_group_name_H-M  'P 1'
_symmetry_Int_Tables_number     1

_symmetry_equiv_pos_as_xyz 'x,y,z'

loop_
_atom_site_label
_atom_site_type_symbol
_atom_site_fract_x
_atom_site_fract_y
_atom_site_fract_z
_atom_site_charge
C1       C      0.015660000000     0.075590000000     0.512550000000     0.476319   
C2       C      0.015650000000     0.455680000000     0.513290000000     0.476988   
C3       C      0.075600000000     0.515650000000     0.012550000000     0.46993    
C4       C      0.455680000000     0.515650000000     0.013290000000     0.470737   
C5       C      0.516210000000     0.075790000000     0.265870000000     0.477004   
C6       C      0.515600000000     0.455970000000     0.259920000000     0.478027   
C7       C      0.455990000000     0.515600000000     0.259930000000     0.477711   
C8       C      0.075800000000     0.516190000000     0.265860000000     0.476978   
C9       C      0.515020000000     0.264600000000     0.072690000000     0.475061   
C10      C      0.516970000000     0.266790000000     0.453160000000     0.475233   
C11      C      0.015990000000     0.325570000000     0.513760000000     0.467541   
C12      C      0.016010000000     0.205750000000     0.512100000000     0.467205   
C13      C      0.014880000000     0.263630000000     0.203160000000     0.46582    
C14      C      0.017170000000     0.268150000000     0.322710000000     0.465467   
C15      C      0.515230000000     0.325830000000     0.260170000000     0.478342   
C16      C      0.516790000000     0.205940000000     0.265700000000     0.478192   
C17      C      0.264610000000     0.015010000000     0.072680000000     0.464126   
C18      C      0.266790000000     0.016950000000     0.453150000000     0.464662   
C19      C      0.325570000000     0.515970000000     0.513740000000     0.478415   
C20      C      0.205750000000     0.515990000000     0.512090000000     0.478006   
C21      C      0.263650000000     0.014860000000     0.203150000000     0.465609   
C22      C      0.268160000000     0.017150000000     0.322690000000     0.465354   
C23      C      0.205950000000     0.516770000000     0.265680000000     0.478219   
C24      C      0.325840000000     0.515210000000     0.260160000000     0.478404   
C25      C      0.266630000000     0.045290000000     0.404440000000     0.0287957  
C26      C      0.269330000000     0.489460000000     0.404320000000     0.0299671  
C27      C      0.269720000000     0.489560000000     0.371490000000     0.0303669  
C28      C      0.267260000000     0.045390000000     0.371460000000     0.0287334  
C29      C      0.265030000000     0.542550000000     0.121530000000     0.0299514  
C30      C      0.262280000000     0.986730000000     0.121370000000     0.0365818  
C31      C      0.262020000000     0.986650000000     0.154360000000     0.0365607  
C32      C      0.264580000000     0.542480000000     0.154350000000     0.0301284  
C33      C      0.489480000000     0.269330000000     0.404340000000     0.0300548  
C34      C      0.045310000000     0.266640000000     0.404460000000     0.0288215  
C35      C      0.045410000000     0.267260000000     0.371480000000     0.0287213  
C36      C      0.489570000000     0.269720000000     0.371510000000     0.03024    
C37      C      0.486750000000     0.262260000000     0.121390000000     0.0301625  
C38      C      0.042570000000     0.265020000000     0.121540000000     0.0285713  
C39      C      0.042500000000     0.264560000000     0.154370000000     0.028865   
C40      C      0.486670000000     0.262000000000     0.154380000000     0.0301857  
C41      C      0.124250000000     0.037390000000     0.247840000000     0.0316328  
C42      C      0.124370000000     0.497460000000     0.286910000000     0.0319336  
C43      C      0.157490000000     0.496320000000     0.285440000000     0.0324645  
C44      C      0.157260000000     0.038540000000     0.248830000000     0.0305145  
C45      C      0.407520000000     0.494370000000     0.277850000000     0.0327542  
C46      C      0.407440000000     0.034530000000     0.239020000000     0.0308919  
C47      C      0.374320000000     0.035730000000     0.240530000000     0.0309032  
C48      C      0.374510000000     0.493280000000     0.276860000000     0.0322377  
C49      C      0.034540000000     0.407430000000     0.239020000000     0.0309287  
C50      C      0.494370000000     0.407510000000     0.277840000000     0.0328402  
C51      C      0.493290000000     0.374500000000     0.276860000000     0.0321969  
C52      C      0.035750000000     0.374300000000     0.240530000000     0.0308141  
C53      C      0.038560000000     0.157240000000     0.248850000000     0.0305257  
C54      C      0.496340000000     0.157480000000     0.285460000000     0.0323893  
C55      C      0.497490000000     0.124360000000     0.286920000000     0.0320323  
C56      C      0.037410000000     0.124230000000     0.247840000000     0.0315797  
C57      C      0.124110000000     0.497510000000     0.491200000000     0.0326236  
C58      C      0.124180000000     0.034140000000     0.033360000000     0.0303072  
C59      C      0.157220000000     0.035500000000     0.032070000000     0.0298009  
C60      C      0.157180000000     0.496360000000     0.492200000000     0.0322934  
C61      C      0.407120000000     0.034260000000     0.492590000000     0.031633   
C62      C      0.407190000000     0.497360000000     0.034520000000     0.0315467  
C63      C      0.374120000000     0.496200000000     0.033490000000     0.0316675  
C64      C      0.374080000000     0.035620000000     0.493900000000     0.0306233  
C65      C      0.497370000000     0.407190000000     0.034520000000     0.0317786  
C66      C      0.034270000000     0.407110000000     0.492600000000     0.0315171  
C67      C      0.035640000000     0.374080000000     0.493920000000     0.0307132  
C68      C      0.496210000000     0.374120000000     0.033510000000     0.031422   
C69      C      0.497520000000     0.124110000000     0.491200000000     0.032621   
C70      C      0.034150000000     0.124170000000     0.033360000000     0.0303059  
C71      C      0.035510000000     0.157210000000     0.032070000000     0.0298208  
C72      C      0.496380000000     0.157180000000     0.492200000000     0.0322481  
C73      C      0.015660000000     0.075590000000     0.012550000000     0.46853    
C74      C      0.015650000000     0.455680000000     0.013290000000     0.469184   
C75      C      0.075600000000     0.515650000000     0.512550000000     0.477742   
C76      C      0.455680000000     0.515650000000     0.513290000000     0.478559   
C77      C      0.516210000000     0.075790000000     0.765870000000     0.477066   
C78      C      0.515600000000     0.455970000000     0.759920000000     0.477745   
C79      C      0.455990000000     0.515600000000     0.759920000000     0.47774    
C80      C      0.075800000000     0.516190000000     0.765860000000     0.477342   
C81      C      0.515030000000     0.264600000000     0.572690000000     0.475168   
C82      C      0.516970000000     0.266790000000     0.953160000000     0.474328   
C83      C      0.015990000000     0.325570000000     0.013760000000     0.466456   
C84      C      0.016010000000     0.205750000000     0.012100000000     0.466416   
C85      C      0.014880000000     0.263630000000     0.703160000000     0.465819   
C86      C      0.017170000000     0.268150000000     0.822710000000     0.465511   
C87      C      0.515220000000     0.325830000000     0.760170000000     0.478671   
C88      C      0.516800000000     0.205940000000     0.765700000000     0.478561   
C89      C      0.264610000000     0.015010000000     0.572680000000     0.464661   
C90      C      0.266790000000     0.016950000000     0.953150000000     0.463783   
C91      C      0.325570000000     0.515970000000     0.013740000000     0.477287   
C92      C      0.205750000000     0.515990000000     0.012090000000     0.476962   
C93      C      0.263650000000     0.014860000000     0.703150000000     0.465621   
C94      C      0.268150000000     0.017150000000     0.822690000000     0.465446   
C95      C      0.205950000000     0.516770000000     0.765680000000     0.478233   
C96      C      0.325840000000     0.515210000000     0.760160000000     0.478402   
C97      C      0.266640000000     0.045290000000     0.904440000000     0.0290673  
C98      C      0.269330000000     0.489460000000     0.904320000000     0.0302286  
C99      C      0.269720000000     0.489560000000     0.871490000000     0.0305998  
C100     C      0.267260000000     0.045390000000     0.871460000000     0.0289719  
C101     C      0.265030000000     0.542550000000     0.621530000000     0.0300472  
C102     C      0.262280000000     0.986730000000     0.621370000000     0.0366831  
C103     C      0.262020000000     0.986650000000     0.654360000000     0.0366144  
C104     C      0.264580000000     0.542480000000     0.654350000000     0.0301739  
C105     C      0.489480000000     0.269330000000     0.904340000000     0.0303094  
C106     C      0.045310000000     0.266640000000     0.904460000000     0.0290962  
C107     C      0.045410000000     0.267260000000     0.871480000000     0.0289612  
C108     C      0.489570000000     0.269720000000     0.871500000000     0.0305102  
C109     C      0.486750000000     0.262260000000     0.621390000000     0.0302648  
C110     C      0.042570000000     0.265020000000     0.621540000000     0.0286724  
C111     C      0.042500000000     0.264560000000     0.654370000000     0.0288998  
C112     C      0.486670000000     0.262000000000     0.654380000000     0.0302356  
C113     C      0.124250000000     0.037390000000     0.747840000000     0.0316874  
C114     C      0.124370000000     0.497460000000     0.786900000000     0.0320929  
C115     C      0.157490000000     0.496320000000     0.785440000000     0.0324781  
C116     C      0.157260000000     0.038540000000     0.748830000000     0.0305555  
C117     C      0.407520000000     0.494370000000     0.777850000000     0.0328705  
C118     C      0.407440000000     0.034530000000     0.739020000000     0.0309194  
C119     C      0.374320000000     0.035730000000     0.740530000000     0.030939   
C120     C      0.374510000000     0.493280000000     0.776870000000     0.032196   
C121     C      0.034540000000     0.407430000000     0.739020000000     0.0309452  
C122     C      0.494370000000     0.407510000000     0.777840000000     0.0329192  
C123     C      0.493290000000     0.374500000000     0.776870000000     0.0321731  
C124     C      0.035750000000     0.374300000000     0.740530000000     0.0308677  
C125     C      0.038560000000     0.157240000000     0.748850000000     0.0305339  
C126     C      0.496340000000     0.157480000000     0.785460000000     0.0325185  
C127     C      0.497480000000     0.124360000000     0.786920000000     0.032013   
C128     C      0.037410000000     0.124230000000     0.747850000000     0.0316941  
C129     C      0.124110000000     0.497510000000     0.991210000000     0.0372037  
C130     C      0.124180000000     0.034140000000     0.533360000000     0.0314878  
C131     C      0.157220000000     0.035500000000     0.532070000000     0.0305997  
C132     C      0.157180000000     0.496370000000     0.992200000000     0.0377006  
C133     C      0.407120000000     0.034260000000     0.992590000000     0.0361913  
C134     C      0.407190000000     0.497360000000     0.534520000000     0.032732   
C135     C      0.374120000000     0.496200000000     0.533490000000     0.0324767  
C136     C      0.374080000000     0.035620000000     0.993900000000     0.0359837  
C137     C      0.497370000000     0.407190000000     0.534520000000     0.0329685  
C138     C      0.034270000000     0.407110000000     0.992600000000     0.0360742  
C139     C      0.035640000000     0.374080000000     0.993920000000     0.0360728  
C140     C      0.496210000000     0.374120000000     0.533510000000     0.0322255  
C141     C      0.497520000000     0.124110000000     0.991200000000     0.0371135  
C142     C      0.034150000000     0.124170000000     0.533360000000     0.0315142  
C143     C      0.035510000000     0.157210000000     0.532070000000     0.0305522  
C144     C      0.496380000000     0.157180000000     0.992200000000     0.03774    
C145     C      0.015660000000     0.575590000000     0.512550000000     0.477025   
C146     C      0.015650000000     0.955680000000     0.513290000000     0.4757     
C147     C      0.075600000000     0.015650000000     0.012550000000     0.468441   
C148     C      0.455680000000     0.015650000000     0.013290000000     0.469254   
C149     C      0.516210000000     0.575790000000     0.265870000000     0.477741   
C150     C      0.515600000000     0.955970000000     0.259920000000     0.47673    
C151     C      0.455990000000     0.015590000000     0.259930000000     0.476218   
C152     C      0.075800000000     0.016190000000     0.265860000000     0.475468   
C153     C      0.515030000000     0.764600000000     0.072690000000     0.474765   
C154     C      0.516970000000     0.766790000000     0.453160000000     0.475254   
C155     C      0.015990000000     0.825570000000     0.513760000000     0.467662   
C156     C      0.016010000000     0.705750000000     0.512100000000     0.467227   
C157     C      0.014880000000     0.763640000000     0.203160000000     0.46587    
C158     C      0.017170000000     0.768150000000     0.322710000000     0.465522   
C159     C      0.515230000000     0.825830000000     0.260170000000     0.478737   
C160     C      0.516800000000     0.705940000000     0.265700000000     0.478509   
C161     C      0.264610000000     0.515010000000     0.072680000000     0.474635   
C162     C      0.266790000000     0.516950000000     0.453150000000     0.475187   
C163     C      0.325570000000     0.015970000000     0.513740000000     0.467427   
C164     C      0.205750000000     0.015990000000     0.512090000000     0.467419   
C165     C      0.263650000000     0.514860000000     0.203150000000     0.476011   
C166     C      0.268160000000     0.517150000000     0.322690000000     0.475968   
C167     C      0.205950000000     0.016770000000     0.265680000000     0.467945   
C168     C      0.325840000000     0.015210000000     0.260160000000     0.467816   
C169     C      0.266640000000     0.545290000000     0.404440000000     0.0302252  
C170     C      0.269330000000     0.989470000000     0.404320000000     0.0364074  
C171     C      0.269720000000     0.989560000000     0.371490000000     0.0365723  
C172     C      0.267260000000     0.545390000000     0.371460000000     0.0302013  
C173     C      0.265030000000     0.042550000000     0.121530000000     0.0285938  
C174     C      0.262280000000     0.486730000000     0.121370000000     0.0302108  
C175     C      0.262020000000     0.486650000000     0.154360000000     0.0301353  
C176     C      0.264580000000     0.042480000000     0.154350000000     0.0288095  
C177     C      0.489480000000     0.769330000000     0.404340000000     0.0301056  
C178     C      0.045310000000     0.766640000000     0.404460000000     0.0288879  
C179     C      0.045410000000     0.767260000000     0.371480000000     0.028778   
C180     C      0.489570000000     0.769720000000     0.371510000000     0.0303     
C181     C      0.486750000000     0.762260000000     0.121390000000     0.030213   
C182     C      0.042570000000     0.765020000000     0.121540000000     0.0286112  
C183     C      0.042500000000     0.764560000000     0.154370000000     0.0289251  
C184     C      0.486670000000     0.762000000000     0.154380000000     0.0302374  
C185     C      0.124250000000     0.537390000000     0.247840000000     0.0327185  
C186     C      0.124370000000     0.997460000000     0.286910000000     0.0392046  
C187     C      0.157490000000     0.996320000000     0.285440000000     0.0386666  
C188     C      0.157260000000     0.538540000000     0.248830000000     0.0321023  
C189     C      0.407520000000     0.994370000000     0.277850000000     0.0399916  
C190     C      0.407440000000     0.534530000000     0.239020000000     0.0320016  
C191     C      0.374320000000     0.535730000000     0.240530000000     0.0325578  
C192     C      0.374510000000     0.993280000000     0.276860000000     0.0384169  
C193     C      0.034540000000     0.907420000000     0.239020000000     0.0312311  
C194     C      0.494370000000     0.907510000000     0.277840000000     0.0331573  
C195     C      0.493290000000     0.874500000000     0.276860000000     0.0324841  
C196     C      0.035750000000     0.874310000000     0.240530000000     0.031094   
C197     C      0.038560000000     0.657240000000     0.248850000000     0.0305513  
C198     C      0.496340000000     0.657480000000     0.285460000000     0.032488   
C199     C      0.497480000000     0.624360000000     0.286920000000     0.0320495  
C200     C      0.037410000000     0.624240000000     0.247840000000     0.0316623  
C201     C      0.124110000000     0.997510000000     0.491200000000     0.0399035  
C202     C      0.124180000000     0.534140000000     0.033360000000     0.0314001  
C203     C      0.157220000000     0.535500000000     0.032070000000     0.0314475  
C204     C      0.157180000000     0.996360000000     0.492200000000     0.0384842  
C205     C      0.407120000000     0.534270000000     0.492590000000     0.032681   
C206     C      0.407190000000     0.997360000000     0.034520000000     0.0388415  
C207     C      0.374120000000     0.996200000000     0.033490000000     0.0378509  
C208     C      0.374080000000     0.535620000000     0.493900000000     0.0323464  
C209     C      0.497370000000     0.907190000000     0.034520000000     0.0321321  
C210     C      0.034270000000     0.907110000000     0.492600000000     0.0318716  
C211     C      0.035640000000     0.874080000000     0.493920000000     0.03101    
C212     C      0.496210000000     0.874120000000     0.033510000000     0.0317328  
C213     C      0.497520000000     0.624110000000     0.491200000000     0.0327455  
C214     C      0.034150000000     0.624170000000     0.033360000000     0.0304272  
C215     C      0.035510000000     0.657210000000     0.032070000000     0.029844   
C216     C      0.496380000000     0.657180000000     0.492200000000     0.0322729  
C217     C      0.015660000000     0.575590000000     0.012550000000     0.469218   
C218     C      0.015650000000     0.955680000000     0.013290000000     0.467928   
C219     C      0.075600000000     0.015650000000     0.512550000000     0.476228   
C220     C      0.455680000000     0.015650000000     0.513290000000     0.477054   
C221     C      0.516210000000     0.575790000000     0.765870000000     0.477798   
C222     C      0.515600000000     0.955970000000     0.759920000000     0.476423   
C223     C      0.455990000000     0.015590000000     0.759920000000     0.476256   
C224     C      0.075800000000     0.016190000000     0.765860000000     0.475827   
C225     C      0.515030000000     0.764600000000     0.572690000000     0.475189   
C226     C      0.516970000000     0.766790000000     0.953160000000     0.474342   
C227     C      0.015990000000     0.825570000000     0.013760000000     0.46662    
C228     C      0.016010000000     0.705750000000     0.012100000000     0.466481   
C229     C      0.014880000000     0.763640000000     0.703160000000     0.465869   
C230     C      0.017170000000     0.768150000000     0.822710000000     0.465565   
C231     C      0.515220000000     0.825830000000     0.760170000000     0.478418   
C232     C      0.516800000000     0.705940000000     0.765700000000     0.478552   
C233     C      0.264610000000     0.515010000000     0.572680000000     0.475194   
C234     C      0.266790000000     0.516950000000     0.953150000000     0.474275   
C235     C      0.325570000000     0.015970000000     0.013740000000     0.466377   
C236     C      0.205750000000     0.015990000000     0.012090000000     0.466361   
C237     C      0.263650000000     0.514860000000     0.703150000000     0.476013   
C238     C      0.268160000000     0.517150000000     0.822690000000     0.476031   
C239     C      0.205950000000     0.016770000000     0.765680000000     0.467975   
C240     C      0.325840000000     0.015210000000     0.760160000000     0.467782   
C241     C      0.266640000000     0.545290000000     0.904440000000     0.0304918  
C242     C      0.269330000000     0.989470000000     0.904320000000     0.0366481  
C243     C      0.269720000000     0.989560000000     0.871490000000     0.0367945  
C244     C      0.267260000000     0.545390000000     0.871460000000     0.0304389  
C245     C      0.265030000000     0.042550000000     0.621530000000     0.0286907  
C246     C      0.262280000000     0.486730000000     0.621370000000     0.03031    
C247     C      0.262020000000     0.486650000000     0.654360000000     0.0301849  
C248     C      0.264580000000     0.042480000000     0.654350000000     0.0288518  
C249     C      0.489480000000     0.769330000000     0.904340000000     0.0303646  
C250     C      0.045310000000     0.766640000000     0.904460000000     0.0291557  
C251     C      0.045410000000     0.767260000000     0.871480000000     0.0290221  
C252     C      0.489570000000     0.769720000000     0.871500000000     0.0305675  
C253     C      0.486750000000     0.762260000000     0.621390000000     0.0303103  
C254     C      0.042570000000     0.765020000000     0.621540000000     0.0287174  
C255     C      0.042500000000     0.764560000000     0.654370000000     0.0289598  
C256     C      0.486670000000     0.762000000000     0.654380000000     0.0302893  
C257     C      0.124250000000     0.537390000000     0.747840000000     0.032778   
C258     C      0.124370000000     0.997460000000     0.786910000000     0.0392815  
C259     C      0.157490000000     0.996320000000     0.785440000000     0.0387144  
C260     C      0.157260000000     0.538540000000     0.748830000000     0.0321373  
C261     C      0.407520000000     0.994370000000     0.777850000000     0.0400933  
C262     C      0.407440000000     0.534530000000     0.739020000000     0.0321127  
C263     C      0.374320000000     0.535740000000     0.740520000000     0.0324378  
C264     C      0.374510000000     0.993280000000     0.776870000000     0.0383718  
C265     C      0.034540000000     0.907420000000     0.739020000000     0.0312537  
C266     C      0.494370000000     0.907510000000     0.777840000000     0.0332306  
C267     C      0.493290000000     0.874500000000     0.776870000000     0.0324399  
C268     C      0.035750000000     0.874310000000     0.740530000000     0.0311336  
C269     C      0.038560000000     0.657240000000     0.748850000000     0.03056    
C270     C      0.496350000000     0.657480000000     0.785460000000     0.0325281  
C271     C      0.497490000000     0.624360000000     0.786920000000     0.0321842  
C272     C      0.037410000000     0.624240000000     0.747850000000     0.0317772  
C273     C      0.124110000000     0.997510000000     0.991200000000     0.0444023  
C274     C      0.124180000000     0.534140000000     0.533360000000     0.0326011  
C275     C      0.157220000000     0.535500000000     0.532070000000     0.032232   
C276     C      0.157180000000     0.996360000000     0.992200000000     0.0438162  
C277     C      0.407120000000     0.534270000000     0.992600000000     0.0373275  
C278     C      0.407190000000     0.997360000000     0.534520000000     0.0400457  
C279     C      0.374120000000     0.996200000000     0.533490000000     0.0386659  
C280     C      0.374080000000     0.535620000000     0.993900000000     0.0376644  
C281     C      0.497360000000     0.907190000000     0.534520000000     0.0331881  
C282     C      0.034270000000     0.907110000000     0.992600000000     0.0364088  
C283     C      0.035640000000     0.874080000000     0.993920000000     0.0363585  
C284     C      0.496210000000     0.874120000000     0.533510000000     0.0325991  
C285     C      0.497530000000     0.624110000000     0.991200000000     0.0373452  
C286     C      0.034150000000     0.624170000000     0.533360000000     0.0316149  
C287     C      0.035510000000     0.657210000000     0.532070000000     0.0306329  
C288     C      0.496380000000     0.657180000000     0.992200000000     0.0376609  
C289     C      0.515660000000     0.075590000000     0.512550000000     0.477821   
C290     C      0.515650000000     0.455680000000     0.513290000000     0.478492   
C291     C      0.575600000000     0.515650000000     0.012550000000     0.470665   
C292     C      0.955680000000     0.515650000000     0.013290000000     0.469492   
C293     C      0.016210000000     0.075790000000     0.265870000000     0.475494   
C294     C      0.015600000000     0.455970000000     0.259920000000     0.476542   
C295     C      0.955990000000     0.515600000000     0.259930000000     0.476423   
C296     C      0.575800000000     0.516190000000     0.265860000000     0.477724   
C297     C      0.015020000000     0.264600000000     0.072690000000     0.464198   
C298     C      0.016970000000     0.266790000000     0.453160000000     0.464714   
C299     C      0.515990000000     0.325560000000     0.513760000000     0.478235   
C300     C      0.516010000000     0.205750000000     0.512100000000     0.477823   
C301     C      0.514880000000     0.263630000000     0.203160000000     0.476173   
C302     C      0.517170000000     0.268150000000     0.322710000000     0.476085   
C303     C      0.015220000000     0.325830000000     0.260170000000     0.467739   
C304     C      0.016800000000     0.205940000000     0.265700000000     0.467917   
C305     C      0.764610000000     0.015010000000     0.072680000000     0.464191   
C306     C      0.766790000000     0.016950000000     0.453150000000     0.464759   
C307     C      0.825570000000     0.515970000000     0.513740000000     0.478457   
C308     C      0.705750000000     0.515990000000     0.512090000000     0.477992   
C309     C      0.763650000000     0.014860000000     0.203150000000     0.465661   
C310     C      0.768160000000     0.017150000000     0.322690000000     0.465415   
C311     C      0.705950000000     0.516770000000     0.265680000000     0.478203   
C312     C      0.825840000000     0.515210000000     0.260160000000     0.478475   
C313     C      0.766630000000     0.045290000000     0.404440000000     0.0288543  
C314     C      0.769330000000     0.489460000000     0.404320000000     0.0300246  
C315     C      0.769720000000     0.489560000000     0.371490000000     0.0304232  
C316     C      0.767260000000     0.045390000000     0.371460000000     0.0287951  
C317     C      0.765030000000     0.542550000000     0.121530000000     0.0300066  
C318     C      0.762280000000     0.986730000000     0.121370000000     0.0366183  
C319     C      0.762020000000     0.986650000000     0.154360000000     0.0365589  
C320     C      0.764580000000     0.542480000000     0.154350000000     0.0301791  
C321     C      0.989480000000     0.269330000000     0.404340000000     0.0363224  
C322     C      0.545310000000     0.266640000000     0.404460000000     0.0302625  
C323     C      0.545410000000     0.267260000000     0.371480000000     0.0301793  
C324     C      0.989580000000     0.269720000000     0.371510000000     0.0366152  
C325     C      0.986750000000     0.262260000000     0.121390000000     0.0365127  
C326     C      0.542570000000     0.265020000000     0.121540000000     0.0299477  
C327     C      0.542500000000     0.264560000000     0.154370000000     0.0301671  
C328     C      0.986670000000     0.262000000000     0.154380000000     0.0366242  
C329     C      0.624250000000     0.037390000000     0.247840000000     0.0317471  
C330     C      0.624370000000     0.497460000000     0.286910000000     0.0320567  
C331     C      0.657490000000     0.496320000000     0.285440000000     0.032475   
C332     C      0.657260000000     0.038540000000     0.248830000000     0.0305338  
C333     C      0.907520000000     0.494370000000     0.277850000000     0.0330753  
C334     C      0.907440000000     0.034530000000     0.239020000000     0.0312209  
C335     C      0.874320000000     0.035730000000     0.240530000000     0.0312123  
C336     C      0.874510000000     0.493280000000     0.276860000000     0.0325144  
C337     C      0.534550000000     0.407430000000     0.239020000000     0.0319501  
C338     C      0.994370000000     0.407510000000     0.277840000000     0.0400874  
C339     C      0.993290000000     0.374500000000     0.276860000000     0.038411   
C340     C      0.535750000000     0.374300000000     0.240530000000     0.0325606  
C341     C      0.538560000000     0.157240000000     0.248840000000     0.0320503  
C342     C      0.996340000000     0.157480000000     0.285460000000     0.0386066  
C343     C      0.997490000000     0.124360000000     0.286920000000     0.0392918  
C344     C      0.537410000000     0.124230000000     0.247840000000     0.0327004  
C345     C      0.624110000000     0.497510000000     0.491200000000     0.0327553  
C346     C      0.624180000000     0.034140000000     0.033360000000     0.0304211  
C347     C      0.657210000000     0.035500000000     0.032070000000     0.0297935  
C348     C      0.657180000000     0.496360000000     0.492200000000     0.0323117  
C349     C      0.907120000000     0.034260000000     0.492590000000     0.0319623  
C350     C      0.907190000000     0.497360000000     0.034520000000     0.0319301  
C351     C      0.874120000000     0.496200000000     0.033490000000     0.0319039  
C352     C      0.874080000000     0.035620000000     0.493900000000     0.0309822  
C353     C      0.997360000000     0.407190000000     0.034520000000     0.0389917  
C354     C      0.534270000000     0.407110000000     0.492600000000     0.0326574  
C355     C      0.535640000000     0.374080000000     0.493920000000     0.0323541  
C356     C      0.996210000000     0.374120000000     0.033510000000     0.0376687  
C357     C      0.997520000000     0.124110000000     0.491200000000     0.0398527  
C358     C      0.534150000000     0.124170000000     0.033360000000     0.0314397  
C359     C      0.535510000000     0.157210000000     0.032070000000     0.0314064  
C360     C      0.996380000000     0.157180000000     0.492200000000     0.0385588  
C361     C      0.515660000000     0.075590000000     0.012550000000     0.470003   
C362     C      0.515650000000     0.455680000000     0.013290000000     0.470661   
C363     C      0.575600000000     0.515650000000     0.512550000000     0.478495   
C364     C      0.955680000000     0.515650000000     0.513290000000     0.477284   
C365     C      0.016210000000     0.075790000000     0.765870000000     0.475548   
C366     C      0.015600000000     0.455970000000     0.759920000000     0.476256   
C367     C      0.955990000000     0.515600000000     0.759930000000     0.47646    
C368     C      0.575800000000     0.516190000000     0.765860000000     0.478088   
C369     C      0.015020000000     0.264600000000     0.572690000000     0.464639   
C370     C      0.016970000000     0.266790000000     0.953160000000     0.463802   
C371     C      0.515990000000     0.325560000000     0.013760000000     0.477167   
C372     C      0.516010000000     0.205750000000     0.012100000000     0.477057   
C373     C      0.514880000000     0.263630000000     0.703160000000     0.476184   
C374     C      0.517170000000     0.268150000000     0.822710000000     0.476164   
C375     C      0.015220000000     0.325830000000     0.760170000000     0.468078   
C376     C      0.016800000000     0.205940000000     0.765700000000     0.467974   
C377     C      0.764610000000     0.015010000000     0.572680000000     0.464676   
C378     C      0.766790000000     0.016950000000     0.953150000000     0.463855   
C379     C      0.825570000000     0.515970000000     0.013740000000     0.477405   
C380     C      0.705750000000     0.515990000000     0.012090000000     0.476909   
C381     C      0.763650000000     0.014860000000     0.703150000000     0.465673   
C382     C      0.768150000000     0.017150000000     0.822690000000     0.465506   
C383     C      0.705950000000     0.516770000000     0.765680000000     0.478221   
C384     C      0.825840000000     0.515210000000     0.760160000000     0.478473   
C385     C      0.766640000000     0.045290000000     0.904440000000     0.0291263  
C386     C      0.769330000000     0.489460000000     0.904320000000     0.0302849  
C387     C      0.769720000000     0.489560000000     0.871490000000     0.0306557  
C388     C      0.767260000000     0.045390000000     0.871460000000     0.0290343  
C389     C      0.765030000000     0.542550000000     0.621530000000     0.030102   
C390     C      0.762280000000     0.986730000000     0.621370000000     0.0367136  
C391     C      0.762020000000     0.986650000000     0.654360000000     0.0366162  
C392     C      0.764580000000     0.542480000000     0.654350000000     0.0302246  
C393     C      0.989480000000     0.269330000000     0.904340000000     0.0366203  
C394     C      0.545310000000     0.266640000000     0.904460000000     0.0305263  
C395     C      0.545410000000     0.267260000000     0.871480000000     0.0304223  
C396     C      0.989570000000     0.269720000000     0.871500000000     0.0367595  
C397     C      0.986750000000     0.262260000000     0.621390000000     0.0366224  
C398     C      0.542570000000     0.265020000000     0.621540000000     0.0300134  
C399     C      0.542500000000     0.264560000000     0.654370000000     0.0302263  
C400     C      0.986670000000     0.262000000000     0.654380000000     0.0366763  
C401     C      0.624250000000     0.037390000000     0.747840000000     0.0318048  
C402     C      0.624370000000     0.497460000000     0.786900000000     0.032216   
C403     C      0.657490000000     0.496320000000     0.785440000000     0.03249    
C404     C      0.657260000000     0.038540000000     0.748830000000     0.0305754  
C405     C      0.907520000000     0.494370000000     0.777850000000     0.0331537  
C406     C      0.907440000000     0.034530000000     0.739020000000     0.0312581  
C407     C      0.874320000000     0.035730000000     0.740530000000     0.0312444  
C408     C      0.874510000000     0.493280000000     0.776870000000     0.0324892  
C409     C      0.534540000000     0.407430000000     0.739020000000     0.0320451  
C410     C      0.994370000000     0.407510000000     0.777840000000     0.0401399  
C411     C      0.993290000000     0.374500000000     0.776870000000     0.0384041  
C412     C      0.535750000000     0.374300000000     0.740530000000     0.0325798  
C413     C      0.538560000000     0.157240000000     0.748840000000     0.0320658  
C414     C      0.996340000000     0.157480000000     0.785460000000     0.0386596  
C415     C      0.997490000000     0.124360000000     0.786920000000     0.0393589  
C416     C      0.537410000000     0.124230000000     0.747850000000     0.0328095  
C417     C      0.624110000000     0.497510000000     0.991210000000     0.0373405  
C418     C      0.624180000000     0.034140000000     0.533360000000     0.0315999  
C419     C      0.657220000000     0.035500000000     0.532070000000     0.0306254  
C420     C      0.657180000000     0.496370000000     0.992200000000     0.0377215  
C421     C      0.907120000000     0.034260000000     0.992590000000     0.0365459  
C422     C      0.907190000000     0.497360000000     0.534520000000     0.0331144  
C423     C      0.874120000000     0.496200000000     0.533490000000     0.0327099  
C424     C      0.874080000000     0.035630000000     0.993900000000     0.0362518  
C425     C      0.997360000000     0.407190000000     0.534520000000     0.0401931  
C426     C      0.534270000000     0.407110000000     0.992600000000     0.0372196  
C427     C      0.535640000000     0.374080000000     0.993920000000     0.0377218  
C428     C      0.996210000000     0.374120000000     0.533510000000     0.0384846  
C429     C      0.997520000000     0.124110000000     0.991200000000     0.0443792  
C430     C      0.534150000000     0.124170000000     0.533360000000     0.0325838  
C431     C      0.535510000000     0.157210000000     0.532070000000     0.0323213  
C432     C      0.996380000000     0.157180000000     0.992200000000     0.0438264  
C433     C      0.515660000000     0.575590000000     0.512550000000     0.478525   
C434     C      0.515650000000     0.955680000000     0.513290000000     0.477199   
C435     C      0.575600000000     0.015650000000     0.012550000000     0.469176   
C436     C      0.955680000000     0.015650000000     0.013290000000     0.468011   
C437     C      0.016210000000     0.575790000000     0.265870000000     0.476238   
C438     C      0.015600000000     0.955970000000     0.259920000000     0.475246   
C439     C      0.955990000000     0.015590000000     0.259930000000     0.474929   
C440     C      0.575800000000     0.016190000000     0.265860000000     0.47635    
C441     C      0.015030000000     0.764600000000     0.072690000000     0.464246   
C442     C      0.016970000000     0.766790000000     0.453160000000     0.464771   
C443     C      0.515990000000     0.825570000000     0.513760000000     0.478232   
C444     C      0.516010000000     0.705750000000     0.512100000000     0.477814   
C445     C      0.514880000000     0.763640000000     0.203160000000     0.476204   
C446     C      0.517170000000     0.768150000000     0.322710000000     0.476117   
C447     C      0.015220000000     0.825830000000     0.260170000000     0.467851   
C448     C      0.016800000000     0.705940000000     0.265700000000     0.467937   
C449     C      0.764610000000     0.515010000000     0.072680000000     0.474656   
C450     C      0.766790000000     0.516950000000     0.453150000000     0.475221   
C451     C      0.825570000000     0.015970000000     0.513740000000     0.467584   
C452     C      0.705750000000     0.015990000000     0.512090000000     0.467408   
C453     C      0.763650000000     0.514860000000     0.203150000000     0.476027   
C454     C      0.768150000000     0.517150000000     0.322690000000     0.475993   
C455     C      0.705950000000     0.016770000000     0.265680000000     0.467966   
C456     C      0.825840000000     0.015210000000     0.260160000000     0.467933   
C457     C      0.766640000000     0.545290000000     0.404440000000     0.0302785  
C458     C      0.769330000000     0.989470000000     0.404320000000     0.036443   
C459     C      0.769720000000     0.989560000000     0.371490000000     0.0365993  
C460     C      0.767260000000     0.545390000000     0.371460000000     0.0302573  
C461     C      0.765030000000     0.042550000000     0.121530000000     0.0286538  
C462     C      0.762280000000     0.486730000000     0.121370000000     0.0302608  
C463     C      0.762020000000     0.486650000000     0.154360000000     0.0301868  
C464     C      0.764580000000     0.042480000000     0.154350000000     0.0288634  
C465     C      0.989480000000     0.769330000000     0.404340000000     0.0364142  
C466     C      0.545310000000     0.766640000000     0.404460000000     0.0303179  
C467     C      0.545410000000     0.767260000000     0.371480000000     0.0302353  
C468     C      0.989570000000     0.769720000000     0.371510000000     0.0365311  
C469     C      0.986750000000     0.762260000000     0.121390000000     0.0365495  
C470     C      0.542570000000     0.765020000000     0.121540000000     0.0299702  
C471     C      0.542500000000     0.764560000000     0.154370000000     0.030231   
C472     C      0.986670000000     0.762000000000     0.154380000000     0.0366422  
C473     C      0.624250000000     0.537390000000     0.247840000000     0.0328346  
C474     C      0.624370000000     0.997460000000     0.286910000000     0.0393016  
C475     C      0.657490000000     0.996320000000     0.285440000000     0.0386737  
C476     C      0.657260000000     0.538540000000     0.248830000000     0.0321176  
C477     C      0.907520000000     0.994370000000     0.277850000000     0.0402506  
C478     C      0.907440000000     0.534530000000     0.239020000000     0.0323696  
C479     C      0.874320000000     0.535740000000     0.240530000000     0.0327792  
C480     C      0.874510000000     0.993280000000     0.276860000000     0.0386636  
C481     C      0.534550000000     0.907420000000     0.239020000000     0.0322403  
C482     C      0.994370000000     0.907510000000     0.277840000000     0.0403433  
C483     C      0.993290000000     0.874500000000     0.276860000000     0.0386598  
C484     C      0.535750000000     0.874310000000     0.240530000000     0.032845   
C485     C      0.538560000000     0.657240000000     0.248840000000     0.0320807  
C486     C      0.996340000000     0.657480000000     0.285460000000     0.0386152  
C487     C      0.997490000000     0.624360000000     0.286920000000     0.0393874  
C488     C      0.537410000000     0.624240000000     0.247840000000     0.0327759  
C489     C      0.624110000000     0.997510000000     0.491200000000     0.0400189  
C490     C      0.624180000000     0.534140000000     0.033360000000     0.0315256  
C491     C      0.657220000000     0.535500000000     0.032070000000     0.0314597  
C492     C      0.657180000000     0.996360000000     0.492200000000     0.038488   
C493     C      0.907120000000     0.534270000000     0.492590000000     0.0330085  
C494     C      0.907190000000     0.997360000000     0.034520000000     0.0391781  
C495     C      0.874120000000     0.996200000000     0.033490000000     0.0380412  
C496     C      0.874080000000     0.535620000000     0.493900000000     0.0326872  
C497     C      0.997360000000     0.907190000000     0.034520000000     0.0392945  
C498     C      0.534270000000     0.907110000000     0.492600000000     0.0330516  
C499     C      0.535640000000     0.874080000000     0.493920000000     0.032643   
C500     C      0.996210000000     0.874120000000     0.033510000000     0.0379293  
C501     C      0.997520000000     0.624110000000     0.491200000000     0.0399863  
C502     C      0.534150000000     0.624170000000     0.033360000000     0.0315408  
C503     C      0.535510000000     0.657210000000     0.032070000000     0.0314758  
C504     C      0.996380000000     0.657180000000     0.492200000000     0.0385028  
C505     C      0.515660000000     0.575590000000     0.012550000000     0.470696   
C506     C      0.515650000000     0.955680000000     0.013290000000     0.469404   
C507     C      0.575600000000     0.015650000000     0.512550000000     0.476982   
C508     C      0.955680000000     0.015650000000     0.513290000000     0.475778   
C509     C      0.016210000000     0.575790000000     0.765870000000     0.476291   
C510     C      0.015600000000     0.955970000000     0.759920000000     0.474964   
C511     C      0.955990000000     0.015590000000     0.759930000000     0.474966   
C512     C      0.575800000000     0.016190000000     0.765860000000     0.476588   
C513     C      0.015030000000     0.764600000000     0.572690000000     0.4647     
C514     C      0.016970000000     0.766790000000     0.953160000000     0.463955   
C515     C      0.515990000000     0.825570000000     0.013760000000     0.477157   
C516     C      0.516010000000     0.705750000000     0.012100000000     0.47704    
C517     C      0.514880000000     0.763640000000     0.703160000000     0.476198   
C518     C      0.517170000000     0.768150000000     0.822710000000     0.476178   
C519     C      0.015220000000     0.825830000000     0.760170000000     0.467872   
C520     C      0.016800000000     0.705940000000     0.765700000000     0.46799    
C521     C      0.764610000000     0.515010000000     0.572680000000     0.475219   
C522     C      0.766790000000     0.516950000000     0.953150000000     0.474288   
C523     C      0.825570000000     0.015970000000     0.013740000000     0.466465   
C524     C      0.705750000000     0.015990000000     0.012090000000     0.466336   
C525     C      0.763650000000     0.514860000000     0.703150000000     0.476029   
C526     C      0.768160000000     0.517150000000     0.822690000000     0.476052   
C527     C      0.705950000000     0.016770000000     0.765680000000     0.467996   
C528     C      0.825840000000     0.015210000000     0.760160000000     0.4679     
C529     C      0.766640000000     0.545290000000     0.904440000000     0.0305438  
C530     C      0.769330000000     0.989470000000     0.904320000000     0.0366807  
C531     C      0.769720000000     0.989560000000     0.871490000000     0.0368231  
C532     C      0.767260000000     0.545390000000     0.871460000000     0.0304961  
C533     C      0.765030000000     0.042550000000     0.621530000000     0.0287509  
C534     C      0.762280000000     0.486730000000     0.621370000000     0.0303612  
C535     C      0.762020000000     0.486650000000     0.654360000000     0.0302357  
C536     C      0.764580000000     0.042480000000     0.654350000000     0.028907   
C537     C      0.989480000000     0.769330000000     0.904340000000     0.0366575  
C538     C      0.545310000000     0.766640000000     0.904460000000     0.0305778  
C539     C      0.545410000000     0.767260000000     0.871480000000     0.0304789  
C540     C      0.989570000000     0.769720000000     0.871500000000     0.0367847  
C541     C      0.986750000000     0.762260000000     0.621390000000     0.0366596  
C542     C      0.542570000000     0.765020000000     0.621540000000     0.0300725  
C543     C      0.542500000000     0.764560000000     0.654370000000     0.0302752  
C544     C      0.986670000000     0.762000000000     0.654380000000     0.0366963  
C545     C      0.624250000000     0.537390000000     0.747840000000     0.0328942  
C546     C      0.624370000000     0.997460000000     0.786910000000     0.0393827  
C547     C      0.657490000000     0.996320000000     0.785440000000     0.0387216  
C548     C      0.657260000000     0.538540000000     0.748830000000     0.032153   
C549     C      0.907520000000     0.994370000000     0.777850000000     0.0403395  
C550     C      0.907440000000     0.534530000000     0.739020000000     0.0324462  
C551     C      0.874320000000     0.535740000000     0.740520000000     0.0327348  
C552     C      0.874510000000     0.993280000000     0.776870000000     0.0386242  
C553     C      0.534540000000     0.907420000000     0.739020000000     0.0323489  
C554     C      0.994370000000     0.907510000000     0.777840000000     0.0404023  
C555     C      0.993290000000     0.874500000000     0.776870000000     0.038638   
C556     C      0.535750000000     0.874310000000     0.740530000000     0.032836   
C557     C      0.538560000000     0.657240000000     0.748840000000     0.0321416  
C558     C      0.996340000000     0.657480000000     0.785460000000     0.0386676  
C559     C      0.997490000000     0.624360000000     0.786920000000     0.0394545  
C560     C      0.537410000000     0.624240000000     0.747850000000     0.0328678  
C561     C      0.624110000000     0.997510000000     0.991200000000     0.044525   
C562     C      0.624180000000     0.534140000000     0.533360000000     0.0327234  
C563     C      0.657220000000     0.535500000000     0.532070000000     0.0322551  
C564     C      0.657180000000     0.996360000000     0.992200000000     0.0438105  
C565     C      0.907120000000     0.534270000000     0.992600000000     0.0376333  
C566     C      0.907190000000     0.997360000000     0.534520000000     0.040373   
C567     C      0.874120000000     0.996200000000     0.533490000000     0.0388648  
C568     C      0.874080000000     0.535620000000     0.993900000000     0.0380047  
C569     C      0.997360000000     0.907190000000     0.534520000000     0.0404952  
C570     C      0.534270000000     0.907110000000     0.992600000000     0.0375455  
C571     C      0.535640000000     0.874080000000     0.993920000000     0.0380135  
C572     C      0.996210000000     0.874120000000     0.533510000000     0.0387446  
C573     C      0.997520000000     0.624110000000     0.991200000000     0.0444906  
C574     C      0.534150000000     0.624170000000     0.533360000000     0.0327077  
C575     C      0.535510000000     0.657210000000     0.532070000000     0.0323398  
C576     C      0.996380000000     0.657180000000     0.992200000000     0.0438292  
H1       H      0.265390000000     0.067920000000     0.416470000000     0.0335797  
H2       H      0.270220000000     0.466700000000     0.416150000000     0.033493   
H3       H      0.270930000000     0.466820000000     0.359630000000     0.0335828  
H4       H      0.266350000000     0.068060000000     0.359470000000     0.0333141  
H5       H      0.266240000000     0.565310000000     0.109720000000     0.0331448  
H6       H      0.261330000000     0.964090000000     0.109330000000     0.0330067  
H7       H      0.260880000000     0.963980000000     0.166350000000     0.0329214  
H8       H      0.265550000000     0.565220000000     0.166210000000     0.0335464  
H9       H      0.466720000000     0.270220000000     0.416160000000     0.0334617  
H10      H      0.067940000000     0.265390000000     0.416480000000     0.0335606  
H11      H      0.068080000000     0.266340000000     0.359490000000     0.0333164  
H12      H      0.466840000000     0.270920000000     0.359650000000     0.0336219  
H13      H      0.464110000000     0.261320000000     0.109350000000     0.0333265  
H14      H      0.065320000000     0.266230000000     0.109730000000     0.0332392  
H15      H      0.065240000000     0.265530000000     0.166230000000     0.0336143  
H16      H      0.464000000000     0.260860000000     0.166360000000     0.033176   
H17      H      0.111840000000     0.053590000000     0.232270000000     0.0287403  
H18      H      0.112050000000     0.481090000000     0.302340000000     0.0295229  
H19      H      0.169970000000     0.479460000000     0.300230000000     0.0301177  
H20      H      0.169450000000     0.055280000000     0.233680000000     0.030127   
H21      H      0.419910000000     0.478050000000     0.293310000000     0.0292612  
H22      H      0.419780000000     0.050980000000     0.223680000000     0.0295738  
H23      H      0.361860000000     0.052700000000     0.225850000000     0.030032   
H24      H      0.362300000000     0.476460000000     0.291920000000     0.0303342  
H25      H      0.051000000000     0.419770000000     0.223680000000     0.0295463  
H26      H      0.478060000000     0.419900000000     0.293300000000     0.0292384  
H27      H      0.476470000000     0.362280000000     0.291920000000     0.0303481  
H28      H      0.052720000000     0.361850000000     0.225860000000     0.0300463  
H29      H      0.055300000000     0.169440000000     0.233690000000     0.0301354  
H30      H      0.479490000000     0.169950000000     0.300250000000     0.0301303  
H31      H      0.481110000000     0.112030000000     0.302350000000     0.0295043  
H32      H      0.053600000000     0.111830000000     0.232270000000     0.0287509  
H33      H      0.111720000000     0.482490000000     0.474500000000     0.0293171  
H34      H      0.111850000000     0.049080000000     0.050180000000     0.028735   
H35      H      0.169580000000     0.051050000000     0.048300000000     0.0298087  
H36      H      0.169520000000     0.480860000000     0.475910000000     0.0302626  
H37      H      0.419450000000     0.049310000000     0.475870000000     0.0289059  
H38      H      0.419590000000     0.482240000000     0.051120000000     0.0295125  
H39      H      0.361770000000     0.480580000000     0.049670000000     0.0301367  
H40      H      0.361710000000     0.051290000000     0.477790000000     0.0300856  
H41      H      0.482240000000     0.419590000000     0.051130000000     0.0294469  
H42      H      0.049310000000     0.419450000000     0.475880000000     0.0289542  
H43      H      0.051310000000     0.361700000000     0.477810000000     0.0300813  
H44      H      0.480590000000     0.361770000000     0.049680000000     0.0302142  
H45      H      0.482500000000     0.111720000000     0.474500000000     0.0293187  
H46      H      0.049090000000     0.111850000000     0.050180000000     0.028726   
H47      H      0.051070000000     0.169570000000     0.048300000000     0.029802   
H48      H      0.480880000000     0.169520000000     0.475910000000     0.0302741  
H49      H      0.265390000000     0.067920000000     0.916470000000     0.0343282  
H50      H      0.270210000000     0.466700000000     0.916150000000     0.0342383  
H51      H      0.270930000000     0.466820000000     0.859630000000     0.0338555  
H52      H      0.266340000000     0.068060000000     0.859470000000     0.0335929  
H53      H      0.266240000000     0.565310000000     0.609720000000     0.0333959  
H54      H      0.261330000000     0.964090000000     0.609330000000     0.0332707  
H55      H      0.260880000000     0.963980000000     0.666350000000     0.0330461  
H56      H      0.265550000000     0.565220000000     0.666210000000     0.0336673  
H57      H      0.466720000000     0.270220000000     0.916160000000     0.0342071  
H58      H      0.067940000000     0.265390000000     0.916490000000     0.0343192  
H59      H      0.068080000000     0.266350000000     0.859490000000     0.0335985  
H60      H      0.466840000000     0.270920000000     0.859650000000     0.0338758  
H61      H      0.464110000000     0.261320000000     0.609350000000     0.0335911  
H62      H      0.065320000000     0.266230000000     0.609730000000     0.0334808  
H63      H      0.065240000000     0.265530000000     0.666230000000     0.0337269  
H64      H      0.464000000000     0.260860000000     0.666360000000     0.0332988  
H65      H      0.111840000000     0.053590000000     0.732270000000     0.028771   
H66      H      0.112050000000     0.481090000000     0.802340000000     0.0296125  
H67      H      0.169970000000     0.479460000000     0.800230000000     0.0302767  
H68      H      0.169450000000     0.055280000000     0.733680000000     0.0301895  
H69      H      0.419910000000     0.478050000000     0.793310000000     0.0293629  
H70      H      0.419780000000     0.050980000000     0.723680000000     0.0296267  
H71      H      0.361860000000     0.052700000000     0.725850000000     0.0301068  
H72      H      0.362300000000     0.476460000000     0.791920000000     0.0305075  
H73      H      0.051000000000     0.419770000000     0.723680000000     0.0296079  
H74      H      0.478060000000     0.419900000000     0.793300000000     0.0293514  
H75      H      0.476470000000     0.362280000000     0.791920000000     0.030508   
H76      H      0.052720000000     0.361850000000     0.725860000000     0.0301159  
H77      H      0.055300000000     0.169440000000     0.733690000000     0.0301921  
H78      H      0.479490000000     0.169950000000     0.800250000000     0.0302577  
H79      H      0.481110000000     0.112030000000     0.802350000000     0.0296468  
H80      H      0.053600000000     0.111830000000     0.732270000000     0.0287678  
H81      H      0.111720000000     0.482490000000     0.974500000000     0.0294074  
H82      H      0.111850000000     0.049080000000     0.550180000000     0.0287837  
H83      H      0.169580000000     0.051050000000     0.548300000000     0.0300324  
H84      H      0.169520000000     0.480860000000     0.975900000000     0.030704   
H85      H      0.419450000000     0.049310000000     0.975870000000     0.0290218  
H86      H      0.419590000000     0.482240000000     0.551120000000     0.0295662  
H87      H      0.361780000000     0.480580000000     0.549670000000     0.0303531  
H88      H      0.361710000000     0.051290000000     0.977790000000     0.0305505  
H89      H      0.482240000000     0.419590000000     0.551130000000     0.0294999  
H90      H      0.049310000000     0.419450000000     0.975880000000     0.029071   
H91      H      0.051310000000     0.361700000000     0.977810000000     0.0305489  
H92      H      0.480590000000     0.361770000000     0.549680000000     0.0304399  
H93      H      0.482500000000     0.111720000000     0.974500000000     0.0294327  
H94      H      0.049090000000     0.111840000000     0.550180000000     0.0287745  
H95      H      0.051070000000     0.169570000000     0.548300000000     0.0300456  
H96      H      0.480880000000     0.169520000000     0.975910000000     0.0306963  
H97      H      0.265390000000     0.567920000000     0.416470000000     0.033546   
H98      H      0.270220000000     0.966700000000     0.416150000000     0.0330722  
H99      H      0.270930000000     0.966820000000     0.359630000000     0.0331598  
H100     H      0.266340000000     0.568060000000     0.359480000000     0.0332852  
H101     H      0.266240000000     0.065310000000     0.109720000000     0.0332193  
H102     H      0.261330000000     0.464090000000     0.109330000000     0.0333264  
H103     H      0.260880000000     0.463980000000     0.166350000000     0.0332008  
H104     H      0.265550000000     0.065220000000     0.166210000000     0.0336381  
H105     H      0.466720000000     0.770220000000     0.416160000000     0.0335341  
H106     H      0.067940000000     0.765400000000     0.416480000000     0.0336194  
H107     H      0.068080000000     0.766340000000     0.359490000000     0.0333826  
H108     H      0.466840000000     0.770930000000     0.359650000000     0.033685   
H109     H      0.464110000000     0.761320000000     0.109350000000     0.0333881  
H110     H      0.065320000000     0.766230000000     0.109730000000     0.033305   
H111     H      0.065240000000     0.765530000000     0.166230000000     0.0336795  
H112     H      0.464000000000     0.760860000000     0.166360000000     0.0332327  
H113     H      0.111840000000     0.553590000000     0.232270000000     0.0289611  
H114     H      0.112050000000     0.981090000000     0.302340000000     0.0301348  
H115     H      0.169970000000     0.979460000000     0.300230000000     0.0303059  
H116     H      0.169450000000     0.555280000000     0.233680000000     0.0302114  
H117     H      0.419910000000     0.978050000000     0.293310000000     0.0298441  
H118     H      0.419780000000     0.550980000000     0.223680000000     0.0298782  
H119     H      0.361860000000     0.552700000000     0.225850000000     0.0301625  
H120     H      0.362300000000     0.976460000000     0.291920000000     0.0305177  
H121     H      0.051000000000     0.919770000000     0.223680000000     0.0306231  
H122     H      0.478060000000     0.919900000000     0.293310000000     0.0301152  
H123     H      0.476470000000     0.862290000000     0.291920000000     0.0305607  
H124     H      0.052720000000     0.861850000000     0.225860000000     0.0303362  
H125     H      0.055300000000     0.669440000000     0.233690000000     0.0301735  
H126     H      0.479490000000     0.669950000000     0.300250000000     0.030169   
H127     H      0.481110000000     0.612030000000     0.302350000000     0.0297603  
H128     H      0.053600000000     0.611830000000     0.232270000000     0.0288803  
H129     H      0.111720000000     0.982490000000     0.474500000000     0.0299585  
H130     H      0.111850000000     0.549070000000     0.050180000000     0.0290351  
H131     H      0.169580000000     0.551050000000     0.048300000000     0.0299461  
H132     H      0.169520000000     0.980860000000     0.475910000000     0.0305355  
H133     H      0.419460000000     0.549310000000     0.475870000000     0.0292722  
H134     H      0.419590000000     0.982240000000     0.051120000000     0.0302104  
H135     H      0.361780000000     0.980580000000     0.049670000000     0.0304945  
H136     H      0.361710000000     0.551290000000     0.477790000000     0.0302535  
H137     H      0.482240000000     0.919590000000     0.051130000000     0.0303622  
H138     H      0.049310000000     0.919450000000     0.475880000000     0.029832   
H139     H      0.051310000000     0.861700000000     0.477810000000     0.0303055  
H140     H      0.480590000000     0.861770000000     0.049680000000     0.0304517  
H141     H      0.482500000000     0.611720000000     0.474500000000     0.0294797  
H142     H      0.049090000000     0.611850000000     0.050180000000     0.028857   
H143     H      0.051070000000     0.669570000000     0.048300000000     0.0298431  
H144     H      0.480880000000     0.669520000000     0.475910000000     0.0303317  
H145     H      0.265390000000     0.567920000000     0.916470000000     0.0342953  
H146     H      0.270220000000     0.966700000000     0.916150000000     0.0338162  
H147     H      0.270930000000     0.966820000000     0.859630000000     0.0334327  
H148     H      0.266340000000     0.568060000000     0.859470000000     0.0335727  
H149     H      0.266240000000     0.065310000000     0.609720000000     0.0334687  
H150     H      0.261330000000     0.464090000000     0.609330000000     0.0335901  
H151     H      0.260880000000     0.463980000000     0.666350000000     0.0333265  
H152     H      0.265550000000     0.065220000000     0.666210000000     0.0337587  
H153     H      0.466720000000     0.770220000000     0.916160000000     0.0342775  
H154     H      0.067940000000     0.765400000000     0.916490000000     0.0343748  
H155     H      0.068080000000     0.766340000000     0.859490000000     0.0336616  
H156     H      0.466840000000     0.770930000000     0.859650000000     0.0339416  
H157     H      0.464110000000     0.761320000000     0.609350000000     0.0336499  
H158     H      0.065320000000     0.766230000000     0.609730000000     0.0335552  
H159     H      0.065240000000     0.765530000000     0.666230000000     0.0337924  
H160     H      0.464000000000     0.760860000000     0.666360000000     0.0333585  
H161     H      0.111840000000     0.553590000000     0.732270000000     0.0289915  
H162     H      0.112050000000     0.981090000000     0.802340000000     0.0302429  
H163     H      0.169970000000     0.979460000000     0.800230000000     0.0304502  
H164     H      0.169450000000     0.555280000000     0.733680000000     0.0302769  
H165     H      0.419910000000     0.978050000000     0.793310000000     0.0299472  
H166     H      0.419780000000     0.550980000000     0.723680000000     0.0299118  
H167     H      0.361860000000     0.552700000000     0.725850000000     0.0302814  
H168     H      0.362300000000     0.976460000000     0.791920000000     0.0306862  
H169     H      0.051000000000     0.919770000000     0.723680000000     0.030683   
H170     H      0.478060000000     0.919900000000     0.793300000000     0.0302252  
H171     H      0.476470000000     0.862290000000     0.791920000000     0.0307372  
H172     H      0.052720000000     0.861850000000     0.725860000000     0.0304093  
H173     H      0.055300000000     0.669440000000     0.733690000000     0.0302354  
H174     H      0.479490000000     0.669950000000     0.800250000000     0.0303206  
H175     H      0.481110000000     0.612030000000     0.802350000000     0.0298595  
H176     H      0.053600000000     0.611830000000     0.732270000000     0.0288981  
H177     H      0.111720000000     0.982490000000     0.974500000000     0.0300583  
H178     H      0.111850000000     0.549070000000     0.550180000000     0.0290827  
H179     H      0.169580000000     0.551050000000     0.548290000000     0.0301812  
H180     H      0.169520000000     0.980860000000     0.975900000000     0.0309865  
H181     H      0.419450000000     0.549310000000     0.975870000000     0.0293581  
H182     H      0.419590000000     0.982240000000     0.551120000000     0.030263   
H183     H      0.361780000000     0.980580000000     0.549670000000     0.0307203  
H184     H      0.361710000000     0.551290000000     0.977790000000     0.0307286  
H185     H      0.482240000000     0.919590000000     0.551130000000     0.0304521  
H186     H      0.049310000000     0.919450000000     0.975880000000     0.0299462  
H187     H      0.051310000000     0.861700000000     0.977810000000     0.030768   
H188     H      0.480590000000     0.861770000000     0.549680000000     0.030663   
H189     H      0.482500000000     0.611720000000     0.974500000000     0.0295658  
H190     H      0.049090000000     0.611850000000     0.550180000000     0.0289066  
H191     H      0.051070000000     0.669570000000     0.548300000000     0.0300749  
H192     H      0.480880000000     0.669520000000     0.975910000000     0.0307776  
H193     H      0.765390000000     0.067920000000     0.416470000000     0.0336398  
H194     H      0.770210000000     0.466700000000     0.416150000000     0.0335647  
H195     H      0.770930000000     0.466820000000     0.359630000000     0.0336507  
H196     H      0.766350000000     0.068060000000     0.359470000000     0.0333785  
H197     H      0.766240000000     0.565310000000     0.109720000000     0.0332175  
H198     H      0.761330000000     0.964090000000     0.109330000000     0.0330625  
H199     H      0.760880000000     0.963990000000     0.166350000000     0.0329925  
H200     H      0.765550000000     0.565220000000     0.166210000000     0.0336124  
H201     H      0.966720000000     0.270220000000     0.416160000000     0.0330852  
H202     H      0.567940000000     0.265390000000     0.416480000000     0.0335258  
H203     H      0.568080000000     0.266340000000     0.359490000000     0.0332987  
H204     H      0.966840000000     0.270930000000     0.359650000000     0.0331527  
H205     H      0.964110000000     0.261310000000     0.109350000000     0.0330237  
H206     H      0.565320000000     0.266230000000     0.109730000000     0.0331503  
H207     H      0.565240000000     0.265530000000     0.166230000000     0.0335193  
H208     H      0.964000000000     0.260860000000     0.166360000000     0.0328941  
H209     H      0.611840000000     0.053590000000     0.232270000000     0.0288585  
H210     H      0.612050000000     0.481090000000     0.302340000000     0.0297541  
H211     H      0.669970000000     0.479470000000     0.300230000000     0.0301841  
H212     H      0.669450000000     0.055280000000     0.233680000000     0.0301686  
H213     H      0.919910000000     0.478050000000     0.293310000000     0.0301414  
H214     H      0.919780000000     0.050980000000     0.223680000000     0.030636   
H215     H      0.861860000000     0.052700000000     0.225850000000     0.0303033  
H216     H      0.862300000000     0.476460000000     0.291920000000     0.0305664  
H217     H      0.551000000000     0.419770000000     0.223680000000     0.029883   
H218     H      0.978060000000     0.419900000000     0.293310000000     0.0298257  
H219     H      0.976470000000     0.362280000000     0.291920000000     0.0305229  
H220     H      0.552720000000     0.361850000000     0.225860000000     0.0301578  
H221     H      0.555300000000     0.169440000000     0.233690000000     0.0302366  
H222     H      0.979490000000     0.169950000000     0.300250000000     0.0303143  
H223     H      0.981110000000     0.112030000000     0.302350000000     0.0301194  
H224     H      0.553600000000     0.111830000000     0.232270000000     0.0289627  
H225     H      0.611720000000     0.482490000000     0.474500000000     0.0294816  
H226     H      0.611850000000     0.049070000000     0.050180000000     0.0288722  
H227     H      0.669580000000     0.051050000000     0.048300000000     0.0298659  
H228     H      0.669520000000     0.480860000000     0.475910000000     0.030316   
H229     H      0.919450000000     0.049310000000     0.475870000000     0.0297883  
H230     H      0.919590000000     0.482240000000     0.051120000000     0.0304213  
H231     H      0.861770000000     0.480580000000     0.049670000000     0.0303968  
H232     H      0.861710000000     0.051290000000     0.477790000000     0.0302942  
H233     H      0.982240000000     0.419590000000     0.051130000000     0.0301696  
H234     H      0.549310000000     0.419450000000     0.475880000000     0.0292889  
H235     H      0.551310000000     0.361700000000     0.477810000000     0.0302788  
H236     H      0.980590000000     0.361770000000     0.049680000000     0.0305618  
H237     H      0.982500000000     0.111720000000     0.474500000000     0.0299709  
H238     H      0.549090000000     0.111840000000     0.050180000000     0.0290176  
H239     H      0.551070000000     0.169570000000     0.048300000000     0.0299529  
H240     H      0.980880000000     0.169520000000     0.475910000000     0.0305189  
H241     H      0.765390000000     0.067920000000     0.916470000000     0.03439    
H242     H      0.770210000000     0.466700000000     0.916150000000     0.0343094  
H243     H      0.770930000000     0.466820000000     0.859630000000     0.0339228  
H244     H      0.766340000000     0.068060000000     0.859470000000     0.0336576  
H245     H      0.766240000000     0.565310000000     0.609720000000     0.0334685  
H246     H      0.761330000000     0.964090000000     0.609330000000     0.0333273  
H247     H      0.760880000000     0.963990000000     0.666350000000     0.0331174  
H248     H      0.765550000000     0.565220000000     0.666210000000     0.0337333  
H249     H      0.966720000000     0.270220000000     0.916160000000     0.0338235  
H250     H      0.567940000000     0.265390000000     0.916490000000     0.0342846  
H251     H      0.568080000000     0.266340000000     0.859490000000     0.0335785  
H252     H      0.966840000000     0.270930000000     0.859650000000     0.0334381  
H253     H      0.964110000000     0.261310000000     0.609350000000     0.033274   
H254     H      0.565320000000     0.266230000000     0.609730000000     0.0334118  
H255     H      0.565240000000     0.265530000000     0.666230000000     0.0336351  
H256     H      0.964000000000     0.260860000000     0.666360000000     0.0330182  
H257     H      0.611840000000     0.053590000000     0.732270000000     0.0288847  
H258     H      0.612050000000     0.481090000000     0.802340000000     0.0298436  
H259     H      0.669970000000     0.479470000000     0.800230000000     0.0303457  
H260     H      0.669450000000     0.055280000000     0.733680000000     0.0302315  
H261     H      0.919910000000     0.478060000000     0.793310000000     0.0302545  
H262     H      0.919780000000     0.050980000000     0.723680000000     0.0306883  
H263     H      0.861860000000     0.052700000000     0.725850000000     0.0303794  
H264     H      0.862300000000     0.476460000000     0.791920000000     0.0307323  
H265     H      0.551000000000     0.419770000000     0.723680000000     0.0299223  
H266     H      0.978060000000     0.419900000000     0.793300000000     0.0299428  
H267     H      0.976470000000     0.362280000000     0.791920000000     0.03068    
H268     H      0.552720000000     0.361850000000     0.725860000000     0.0302335  
H269     H      0.555300000000     0.169440000000     0.733690000000     0.030291   
H270     H      0.979490000000     0.169950000000     0.800250000000     0.0304654  
H271     H      0.981110000000     0.112030000000     0.802350000000     0.0302361  
H272     H      0.553600000000     0.111830000000     0.732270000000     0.0289818  
H273     H      0.611720000000     0.482490000000     0.974500000000     0.0295717  
H274     H      0.611850000000     0.049070000000     0.550180000000     0.0289233  
H275     H      0.669580000000     0.051050000000     0.548300000000     0.0300749  
H276     H      0.669520000000     0.480860000000     0.975900000000     0.0307632  
H277     H      0.919450000000     0.049310000000     0.975870000000     0.0298928  
H278     H      0.919590000000     0.482240000000     0.551120000000     0.0304757  
H279     H      0.861780000000     0.480580000000     0.549670000000     0.0306148  
H280     H      0.861710000000     0.051290000000     0.977790000000     0.0307895  
H281     H      0.982240000000     0.419590000000     0.551130000000     0.0302218  
H282     H      0.549310000000     0.419450000000     0.975880000000     0.0294046  
H283     H      0.551310000000     0.361700000000     0.977810000000     0.0307433  
H284     H      0.980590000000     0.361770000000     0.549680000000     0.0307805  
H285     H      0.982500000000     0.111720000000     0.974500000000     0.030066   
H286     H      0.549090000000     0.111840000000     0.550180000000     0.0290792  
H287     H      0.551070000000     0.169570000000     0.548300000000     0.0301583  
H288     H      0.980880000000     0.169520000000     0.975910000000     0.0309899  
H289     H      0.765390000000     0.567920000000     0.416470000000     0.0336069  
H290     H      0.770220000000     0.966700000000     0.416150000000     0.0331457  
H291     H      0.770930000000     0.966820000000     0.359630000000     0.0332287  
H292     H      0.766340000000     0.568060000000     0.359480000000     0.0333494  
H293     H      0.766240000000     0.065310000000     0.109720000000     0.0332901  
H294     H      0.761330000000     0.464090000000     0.109330000000     0.0333846  
H295     H      0.760880000000     0.463980000000     0.166350000000     0.0332607  
H296     H      0.765550000000     0.065220000000     0.166210000000     0.0337039  
H297     H      0.966720000000     0.770220000000     0.416160000000     0.0331432  
H298     H      0.567940000000     0.765390000000     0.416480000000     0.0335853  
H299     H      0.568080000000     0.766340000000     0.359490000000     0.0333616  
H300     H      0.966840000000     0.770930000000     0.359650000000     0.0332517  
H301     H      0.964110000000     0.761320000000     0.109350000000     0.0330736  
H302     H      0.565320000000     0.766230000000     0.109730000000     0.0332377  
H303     H      0.565240000000     0.765530000000     0.166230000000     0.0335818  
H304     H      0.964000000000     0.760860000000     0.166360000000     0.0329539  
H305     H      0.611840000000     0.553590000000     0.232270000000     0.0290746  
H306     H      0.612050000000     0.981090000000     0.302340000000     0.0303693  
H307     H      0.669970000000     0.979460000000     0.300230000000     0.0303689  
H308     H      0.669450000000     0.555280000000     0.233680000000     0.0302532  
H309     H      0.919910000000     0.978050000000     0.293310000000     0.0307171  
H310     H      0.919780000000     0.550980000000     0.223680000000     0.0309263  
H311     H      0.861860000000     0.552700000000     0.225850000000     0.0304554  
H312     H      0.862300000000     0.976460000000     0.291920000000     0.0307432  
H313     H      0.551000000000     0.919770000000     0.223680000000     0.0309567  
H314     H      0.978060000000     0.919900000000     0.293310000000     0.0306971  
H315     H      0.976470000000     0.862280000000     0.291920000000     0.030747   
H316     H      0.552720000000     0.861850000000     0.225860000000     0.0304323  
H317     H      0.555300000000     0.669440000000     0.233690000000     0.0302713  
H318     H      0.979490000000     0.669950000000     0.300250000000     0.0303751  
H319     H      0.981110000000     0.612030000000     0.302350000000     0.0303478  
H320     H      0.553600000000     0.611830000000     0.232270000000     0.0290935  
H321     H      0.611720000000     0.982490000000     0.474500000000     0.0301218  
H322     H      0.611850000000     0.549070000000     0.050180000000     0.0291651  
H323     H      0.669580000000     0.551050000000     0.048300000000     0.0299894  
H324     H      0.669510000000     0.980860000000     0.475910000000     0.0305848  
H325     H      0.919450000000     0.549310000000     0.475870000000     0.0301453  
H326     H      0.919590000000     0.982240000000     0.051120000000     0.0311074  
H327     H      0.861780000000     0.980580000000     0.049670000000     0.0307522  
H328     H      0.861710000000     0.551290000000     0.477790000000     0.0304626  
H329     H      0.982240000000     0.919590000000     0.051130000000     0.0310743  
H330     H      0.549310000000     0.919450000000     0.475880000000     0.0301529  
H331     H      0.551310000000     0.861700000000     0.477810000000     0.0304968  
H332     H      0.980590000000     0.861770000000     0.049680000000     0.0307992  
H333     H      0.982500000000     0.611720000000     0.474500000000     0.0301244  
H334     H      0.549090000000     0.611850000000     0.050180000000     0.0291473  
H335     H      0.551070000000     0.669570000000     0.048300000000     0.0299841  
H336     H      0.980880000000     0.669520000000     0.475910000000     0.0305903  
H337     H      0.765390000000     0.567920000000     0.916470000000     0.0343555  
H338     H      0.770220000000     0.966700000000     0.916150000000     0.0338879  
H339     H      0.770930000000     0.966820000000     0.859630000000     0.0335012  
H340     H      0.766340000000     0.568060000000     0.859470000000     0.0336366  
H341     H      0.766240000000     0.065310000000     0.609720000000     0.033542   
H342     H      0.761330000000     0.464090000000     0.609330000000     0.0336477  
H343     H      0.760880000000     0.463980000000     0.666350000000     0.0333863  
H344     H      0.765550000000     0.065220000000     0.666210000000     0.0338249  
H345     H      0.966720000000     0.770220000000     0.916160000000     0.0338919  
H346     H      0.567940000000     0.765400000000     0.916490000000     0.0343439  
H347     H      0.568080000000     0.766340000000     0.859490000000     0.033642   
H348     H      0.966840000000     0.770930000000     0.859650000000     0.0335057  
H349     H      0.964110000000     0.761320000000     0.609350000000     0.0333315  
H350     H      0.565320000000     0.766230000000     0.609730000000     0.0334831  
H351     H      0.565240000000     0.765540000000     0.666230000000     0.0337024  
H352     H      0.964000000000     0.760860000000     0.666360000000     0.0330804  
H353     H      0.611840000000     0.553590000000     0.732270000000     0.0291048  
H354     H      0.612050000000     0.981090000000     0.802340000000     0.0304729  
H355     H      0.669970000000     0.979460000000     0.800230000000     0.0305133  
H356     H      0.669450000000     0.555280000000     0.733680000000     0.0303186  
H357     H      0.919910000000     0.978050000000     0.793310000000     0.0308205  
H358     H      0.919780000000     0.550980000000     0.723680000000     0.0309696  
H359     H      0.861860000000     0.552700000000     0.725850000000     0.030553   
H360     H      0.862300000000     0.976460000000     0.791920000000     0.0309101  
H361     H      0.551000000000     0.919770000000     0.723680000000     0.0309942  
H362     H      0.978060000000     0.919900000000     0.793300000000     0.0308111  
H363     H      0.976470000000     0.862280000000     0.791920000000     0.0309132  
H364     H      0.552720000000     0.861850000000     0.725860000000     0.0305266  
H365     H      0.555300000000     0.669440000000     0.733690000000     0.0303214  
H366     H      0.979490000000     0.669950000000     0.800250000000     0.0305253  
H367     H      0.981110000000     0.612030000000     0.802350000000     0.0304631  
H368     H      0.553600000000     0.611830000000     0.732270000000     0.0291176  
H369     H      0.611720000000     0.982490000000     0.974500000000     0.0302196  
H370     H      0.611850000000     0.549070000000     0.550180000000     0.0292133  
H371     H      0.669580000000     0.551050000000     0.548290000000     0.0302242  
H372     H      0.669520000000     0.980860000000     0.975900000000     0.031041   
H373     H      0.919450000000     0.549310000000     0.975870000000     0.0302355  
H374     H      0.919590000000     0.982240000000     0.551120000000     0.0311639  
H375     H      0.861780000000     0.980580000000     0.549670000000     0.0309789  
H376     H      0.861710000000     0.551290000000     0.977790000000     0.0309351  
H377     H      0.982240000000     0.919590000000     0.551130000000     0.0311289  
H378     H      0.549310000000     0.919450000000     0.975880000000     0.0302776  
H379     H      0.551310000000     0.861700000000     0.977810000000     0.0309569  
H380     H      0.980590000000     0.861770000000     0.549680000000     0.0310232  
H381     H      0.982500000000     0.611720000000     0.974500000000     0.0302234  
H382     H      0.549090000000     0.611840000000     0.550180000000     0.0292105  
H383     H      0.551070000000     0.669570000000     0.548300000000     0.0302008  
H384     H      0.980880000000     0.669520000000     0.975910000000     0.0310383  
N1       N      0.267570000000     0.017290000000     0.420820000000    -0.192371   
N2       N      0.268540000000     0.017480000000     0.355030000000    -0.192546   
N3       N      0.263960000000     0.014700000000     0.105010000000    -0.192319   
N4       N      0.263280000000     0.014550000000     0.170810000000    -0.192502   
N5       N      0.517310000000     0.267580000000     0.420840000000    -0.189487   
N6       N      0.017500000000     0.268540000000     0.355040000000    -0.192627   
N7       N      0.514720000000     0.263950000000     0.105020000000    -0.189445   
N8       N      0.014570000000     0.263260000000     0.170820000000    -0.192578   
N9       N      0.108030000000     0.517190000000     0.267210000000    -0.190631   
N10      N      0.173680000000     0.517250000000     0.266780000000    -0.190634   
N11      N      0.423760000000     0.514650000000     0.258580000000    -0.190739   
N12      N      0.358110000000     0.514710000000     0.259060000000    -0.190695   
N13      N      0.514650000000     0.423750000000     0.258580000000    -0.190881   
N14      N      0.514730000000     0.358100000000     0.259070000000    -0.19068    
N15      N      0.517270000000     0.173670000000     0.266800000000    -0.190596   
N16      N      0.517210000000     0.108010000000     0.267220000000    -0.190726   
N17      N      0.107860000000     0.515760000000     0.012370000000    -0.192991   
N18      N      0.173480000000     0.515980000000     0.012070000000    -0.193844   
N19      N      0.423430000000     0.515750000000     0.013470000000    -0.193134   
N20      N      0.357830000000     0.515950000000     0.013760000000    -0.193959   
N21      N      0.015750000000     0.423420000000     0.513480000000    -0.195262   
N22      N      0.015970000000     0.357820000000     0.513770000000    -0.193608   
N23      N      0.015770000000     0.107860000000     0.512370000000    -0.195113   
N24      N      0.015990000000     0.173480000000     0.512070000000    -0.193447   
N25      N      0.267570000000     0.017290000000     0.920820000000    -0.191885   
N26      N      0.268540000000     0.017480000000     0.855030000000    -0.19251    
N27      N      0.263970000000     0.014700000000     0.605010000000    -0.192381   
N28      N      0.263280000000     0.014550000000     0.670810000000    -0.192494   
N29      N      0.517310000000     0.267580000000     0.920840000000    -0.189008   
N30      N      0.017500000000     0.268540000000     0.855040000000    -0.192565   
N31      N      0.514720000000     0.263950000000     0.605030000000    -0.189355   
N32      N      0.014570000000     0.263260000000     0.670820000000    -0.192572   
N33      N      0.108030000000     0.517190000000     0.767210000000    -0.190712   
N34      N      0.173680000000     0.517250000000     0.766780000000    -0.190601   
N35      N      0.423760000000     0.514650000000     0.758580000000    -0.190761   
N36      N      0.358110000000     0.514710000000     0.759060000000    -0.190603   
N37      N      0.514650000000     0.423750000000     0.758580000000    -0.190843   
N38      N      0.514730000000     0.358100000000     0.759070000000    -0.1907     
N39      N      0.517270000000     0.173670000000     0.766800000000    -0.190645   
N40      N      0.517210000000     0.108010000000     0.767220000000    -0.190718   
N41      N      0.107860000000     0.515760000000     0.512370000000    -0.19088    
N42      N      0.173480000000     0.515980000000     0.512070000000    -0.190633   
N43      N      0.423430000000     0.515750000000     0.513470000000    -0.191013   
N44      N      0.357830000000     0.515950000000     0.513760000000    -0.190791   
N45      N      0.015750000000     0.423420000000     0.013480000000    -0.197343   
N46      N      0.015970000000     0.357820000000     0.013770000000    -0.196766   
N47      N      0.015770000000     0.107860000000     0.012370000000    -0.197183   
N48      N      0.016000000000     0.173480000000     0.012070000000    -0.196656   
N49      N      0.267570000000     0.517290000000     0.420820000000    -0.189382   
N50      N      0.268540000000     0.517480000000     0.355030000000    -0.18959    
N51      N      0.263970000000     0.514700000000     0.105010000000    -0.189389   
N52      N      0.263280000000     0.514550000000     0.170810000000    -0.189574   
N53      N      0.517310000000     0.767570000000     0.420840000000    -0.189472   
N54      N      0.017500000000     0.768540000000     0.355040000000    -0.192563   
N55      N      0.514720000000     0.763950000000     0.105020000000    -0.189364   
N56      N      0.014570000000     0.763260000000     0.170820000000    -0.192551   
N57      N      0.108030000000     0.017190000000     0.267210000000    -0.194933   
N58      N      0.173680000000     0.017250000000     0.266780000000    -0.193539   
N59      N      0.423760000000     0.014650000000     0.258580000000    -0.195044   
N60      N      0.358110000000     0.014710000000     0.259060000000    -0.193544   
N61      N      0.514650000000     0.923750000000     0.258580000000    -0.190226   
N62      N      0.514730000000     0.858100000000     0.259070000000    -0.190705   
N63      N      0.517270000000     0.673670000000     0.266800000000    -0.190663   
N64      N      0.517210000000     0.608010000000     0.267220000000    -0.190782   
N65      N      0.107860000000     0.015760000000     0.012370000000    -0.197257   
N66      N      0.173480000000     0.015980000000     0.012070000000    -0.196646   
N67      N      0.423430000000     0.015750000000     0.013470000000    -0.197422   
N68      N      0.357830000000     0.015950000000     0.013760000000    -0.19672    
N69      N      0.015750000000     0.923420000000     0.513480000000    -0.194587   
N70      N      0.015970000000     0.857820000000     0.513770000000    -0.193555   
N71      N      0.015770000000     0.607860000000     0.512370000000    -0.195197   
N72      N      0.016000000000     0.673480000000     0.512070000000    -0.193425   
N73      N      0.267570000000     0.517290000000     0.920820000000    -0.188901   
N74      N      0.268540000000     0.517480000000     0.855030000000    -0.189561   
N75      N      0.263970000000     0.514700000000     0.605010000000    -0.189447   
N76      N      0.263280000000     0.514550000000     0.670810000000    -0.189559   
N77      N      0.517310000000     0.767580000000     0.920840000000    -0.18899    
N78      N      0.017500000000     0.768540000000     0.855040000000    -0.192534   
N79      N      0.514720000000     0.763960000000     0.605030000000    -0.18934    
N80      N      0.014570000000     0.763260000000     0.670820000000    -0.192544   
N81      N      0.108030000000     0.017190000000     0.767210000000    -0.194987   
N82      N      0.173680000000     0.017250000000     0.766780000000    -0.193514   
N83      N      0.423760000000     0.014650000000     0.758580000000    -0.195051   
N84      N      0.358110000000     0.014710000000     0.759060000000    -0.193494   
N85      N      0.514650000000     0.923750000000     0.758580000000    -0.190193   
N86      N      0.514730000000     0.858100000000     0.759070000000    -0.190594   
N87      N      0.517270000000     0.673670000000     0.766790000000    -0.190655   
N88      N      0.517210000000     0.608010000000     0.767220000000    -0.190816   
N89      N      0.107860000000     0.015760000000     0.512370000000    -0.195186   
N90      N      0.173480000000     0.015980000000     0.512070000000    -0.193484   
N91      N      0.423430000000     0.015750000000     0.513470000000    -0.19534    
N92      N      0.357830000000     0.015950000000     0.513760000000    -0.193553   
N93      N      0.015750000000     0.923420000000     0.013480000000    -0.196664   
N94      N      0.015970000000     0.857820000000     0.013770000000    -0.196718   
N95      N      0.015770000000     0.607860000000     0.012370000000    -0.19727    
N96      N      0.016000000000     0.673480000000     0.012070000000    -0.19665    
N97      N      0.767570000000     0.017290000000     0.420820000000    -0.192349   
N98      N      0.768540000000     0.017480000000     0.355030000000    -0.192517   
N99      N      0.763960000000     0.014700000000     0.105010000000    -0.192296   
N100     N      0.763280000000     0.014550000000     0.170810000000    -0.192471   
N101     N      0.017310000000     0.267580000000     0.420840000000    -0.192432   
N102     N      0.517500000000     0.268540000000     0.355040000000    -0.189635   
N103     N      0.014720000000     0.263950000000     0.105020000000    -0.1923     
N104     N      0.514570000000     0.263260000000     0.170820000000    -0.189643   
N105     N      0.608030000000     0.517190000000     0.267210000000    -0.190727   
N106     N      0.673680000000     0.517250000000     0.266780000000    -0.190622   
N107     N      0.923760000000     0.514650000000     0.258580000000    -0.190103   
N108     N      0.858110000000     0.514710000000     0.259060000000    -0.190641   
N109     N      0.014650000000     0.423750000000     0.258580000000    -0.195211   
N110     N      0.014720000000     0.358100000000     0.259070000000    -0.19352    
N111     N      0.017270000000     0.173670000000     0.266800000000    -0.193523   
N112     N      0.017210000000     0.108010000000     0.267220000000    -0.195021   
N113     N      0.607860000000     0.515760000000     0.012370000000    -0.19309    
N114     N      0.673480000000     0.515980000000     0.012070000000    -0.193825   
N115     N      0.923430000000     0.515750000000     0.013470000000    -0.192486   
N116     N      0.857830000000     0.515960000000     0.013760000000    -0.193924   
N117     N      0.515750000000     0.423420000000     0.513480000000    -0.19098    
N118     N      0.515970000000     0.357820000000     0.513770000000    -0.19068    
N119     N      0.515770000000     0.107860000000     0.512370000000    -0.190806   
N120     N      0.516000000000     0.173480000000     0.512080000000    -0.190601   
N121     N      0.767570000000     0.017290000000     0.920820000000    -0.191859   
N122     N      0.768540000000     0.017480000000     0.855030000000    -0.192481   
N123     N      0.763970000000     0.014700000000     0.605010000000    -0.192349   
N124     N      0.763280000000     0.014550000000     0.670810000000    -0.192463   
N125     N      0.017310000000     0.267580000000     0.920840000000    -0.191948   
N126     N      0.517500000000     0.268540000000     0.855040000000    -0.189619   
N127     N      0.014720000000     0.263950000000     0.605030000000    -0.192291   
N128     N      0.514570000000     0.263260000000     0.670820000000    -0.189634   
N129     N      0.608030000000     0.517190000000     0.767210000000    -0.190808   
N130     N      0.673680000000     0.517250000000     0.766780000000    -0.190588   
N131     N      0.923760000000     0.514650000000     0.758580000000    -0.190112   
N132     N      0.858110000000     0.514710000000     0.759060000000    -0.190577   
N133     N      0.014650000000     0.423750000000     0.758580000000    -0.195143   
N134     N      0.014720000000     0.358100000000     0.759070000000    -0.193544   
N135     N      0.017270000000     0.173670000000     0.766800000000    -0.193498   
N136     N      0.017210000000     0.108010000000     0.767220000000    -0.195034   
N137     N      0.607860000000     0.515760000000     0.512370000000    -0.190977   
N138     N      0.673480000000     0.515980000000     0.512070000000    -0.190624   
N139     N      0.923430000000     0.515750000000     0.513470000000    -0.190368   
N140     N      0.857830000000     0.515960000000     0.513760000000    -0.19075    
N141     N      0.515750000000     0.423420000000     0.013480000000    -0.193076   
N142     N      0.515970000000     0.357820000000     0.013770000000    -0.193865   
N143     N      0.515770000000     0.107860000000     0.012370000000    -0.1929     
N144     N      0.515990000000     0.173480000000     0.012070000000    -0.193849   
N145     N      0.767570000000     0.517290000000     0.420820000000    -0.189367   
N146     N      0.768540000000     0.517480000000     0.355030000000    -0.189572   
N147     N      0.763970000000     0.514700000000     0.105010000000    -0.189373   
N148     N      0.763280000000     0.514550000000     0.170810000000    -0.189558   
N149     N      0.017310000000     0.767580000000     0.420840000000    -0.192414   
N150     N      0.517500000000     0.768540000000     0.355040000000    -0.189621   
N151     N      0.014720000000     0.763950000000     0.105020000000    -0.192279   
N152     N      0.514570000000     0.763260000000     0.170820000000    -0.189632   
N153     N      0.608020000000     0.017190000000     0.267210000000    -0.195102   
N154     N      0.673680000000     0.017250000000     0.266780000000    -0.193523   
N155     N      0.923760000000     0.014650000000     0.258580000000    -0.194371   
N156     N      0.858110000000     0.014710000000     0.259060000000    -0.193499   
N157     N      0.014650000000     0.923750000000     0.258580000000    -0.194528   
N158     N      0.014720000000     0.858100000000     0.259070000000    -0.193463   
N159     N      0.017270000000     0.673670000000     0.266800000000    -0.193509   
N160     N      0.017210000000     0.608010000000     0.267220000000    -0.195096   
N161     N      0.607860000000     0.015760000000     0.012370000000    -0.197345   
N162     N      0.673480000000     0.015980000000     0.012070000000    -0.196615   
N163     N      0.923430000000     0.015750000000     0.013470000000    -0.196753   
N164     N      0.857830000000     0.015960000000     0.013760000000    -0.196631   
N165     N      0.515760000000     0.923420000000     0.513480000000    -0.190307   
N166     N      0.515970000000     0.857820000000     0.513770000000    -0.190736   
N167     N      0.515770000000     0.607860000000     0.512370000000    -0.1909     
N168     N      0.516000000000     0.673480000000     0.512080000000    -0.190588   
N169     N      0.767570000000     0.517290000000     0.920820000000    -0.188884   
N170     N      0.768540000000     0.517480000000     0.855030000000    -0.189544   
N171     N      0.763970000000     0.514700000000     0.605010000000    -0.189432   
N172     N      0.763280000000     0.514550000000     0.670810000000    -0.189544   
N173     N      0.017310000000     0.767580000000     0.920840000000    -0.191935   
N174     N      0.517500000000     0.768540000000     0.855040000000    -0.189601   
N175     N      0.014720000000     0.763950000000     0.605030000000    -0.192264   
N176     N      0.514570000000     0.763260000000     0.670820000000    -0.189617   
N177     N      0.608030000000     0.017190000000     0.767210000000    -0.195076   
N178     N      0.673680000000     0.017250000000     0.766780000000    -0.193497   
N179     N      0.923760000000     0.014650000000     0.758580000000    -0.194374   
N180     N      0.858110000000     0.014710000000     0.759060000000    -0.19345    
N181     N      0.014650000000     0.923750000000     0.758580000000    -0.194463   
N182     N      0.014720000000     0.858100000000     0.759070000000    -0.193423   
N183     N      0.017270000000     0.673670000000     0.766800000000    -0.193481   
N184     N      0.017210000000     0.608010000000     0.767220000000    -0.195109   
N185     N      0.607860000000     0.015760000000     0.512370000000    -0.195271   
N186     N      0.673480000000     0.015980000000     0.512070000000    -0.193459   
N187     N      0.923430000000     0.015750000000     0.513470000000    -0.194667   
N188     N      0.857830000000     0.015960000000     0.513760000000    -0.193503   
N189     N      0.515750000000     0.923420000000     0.013480000000    -0.192424   
N190     N      0.515970000000     0.857820000000     0.013770000000    -0.193906   
N191     N      0.515770000000     0.607860000000     0.012370000000    -0.193018   
N192     N      0.516000000000     0.673480000000     0.012070000000    -0.193829   
O1       O      0.516410000000     0.060760000000     0.038980000000    -0.552183   
O2       O      0.015160000000     0.470810000000     0.039550000000    -0.55459    
O3       O      0.060760000000     0.016410000000     0.038980000000    -0.552484   
O4       O      0.470810000000     0.515160000000     0.039550000000    -0.553291   
O5       O      0.470510000000     0.016110000000     0.486850000000    -0.556221   
O6       O      0.060460000000     0.514860000000     0.486300000000    -0.553926   
O7       O      0.516120000000     0.470500000000     0.486850000000    -0.555696   
O8       O      0.014870000000     0.060460000000     0.486300000000    -0.555345   
O9       O      0.018200000000     0.062210000000     0.238910000000    -0.5568     
O10      O      0.518150000000     0.472330000000     0.234440000000    -0.551818   
O11      O      0.472340000000     0.018140000000     0.234440000000    -0.552095   
O12      O      0.062220000000     0.518190000000     0.238910000000    -0.556539   
O13      O      0.059450000000     0.013630000000     0.291350000000    -0.551536   
O14      O      0.469570000000     0.513580000000     0.286880000000    -0.558105   
O15      O      0.013590000000     0.469550000000     0.286870000000    -0.559495   
O16      O      0.513650000000     0.059430000000     0.291350000000    -0.55023    
O17      O      0.041550000000     0.267190000000     0.057940000000    -0.551472   
O18      O      0.043100000000     0.264160000000     0.468530000000    -0.551049   
O19      O      0.042340000000     0.310590000000     0.011020000000    -0.552806   
O20      O      0.042290000000     0.220730000000     0.515480000000    -0.551787   
O21      O      0.489730000000     0.220790000000     0.009010000000    -0.555211   
O22      O      0.489630000000     0.310530000000     0.516200000000    -0.553816   
O23      O      0.490430000000     0.268700000000     0.468000000000    -0.555268   
O24      O      0.488880000000     0.262640000000     0.057250000000    -0.552943   
O25      O      0.488710000000     0.263540000000     0.218820000000    -0.551988   
O26      O      0.490480000000     0.267590000000     0.308200000000    -0.559031   
O27      O      0.488990000000     0.310500000000     0.262260000000    -0.555343   
O28      O      0.490130000000     0.220620000000     0.266510000000    -0.554356   
O29      O      0.043010000000     0.221250000000     0.263310000000    -0.552499   
O30      O      0.041900000000     0.311170000000     0.259650000000    -0.551428   
O31      O      0.043340000000     0.267850000000     0.307050000000    -0.549638   
O32      O      0.041550000000     0.264540000000     0.217670000000    -0.55632    
O33      O      0.262640000000     0.488860000000     0.057240000000    -0.552602   
O34      O      0.268700000000     0.490420000000     0.467980000000    -0.555205   
O35      O      0.310530000000     0.489620000000     0.016180000000    -0.554067   
O36      O      0.220790000000     0.489710000000     0.509000000000    -0.553941   
O37      O      0.220740000000     0.042270000000     0.015470000000    -0.552188   
O38      O      0.310590000000     0.042330000000     0.511010000000    -0.551667   
O39      O      0.264160000000     0.043090000000     0.468520000000    -0.551161   
O40      O      0.267190000000     0.041530000000     0.057920000000    -0.551591   
O41      O      0.263560000000     0.488690000000     0.218810000000    -0.552155   
O42      O      0.267600000000     0.490460000000     0.308180000000    -0.559002   
O43      O      0.220630000000     0.490110000000     0.266490000000    -0.554364   
O44      O      0.310520000000     0.488980000000     0.262250000000    -0.55537    
O45      O      0.311180000000     0.041890000000     0.259640000000    -0.551469   
O46      O      0.221260000000     0.042990000000     0.263300000000    -0.552443   
O47      O      0.267860000000     0.043320000000     0.307030000000    -0.549626   
O48      O      0.264560000000     0.041540000000     0.217660000000    -0.556379   
O49      O      0.516410000000     0.060760000000     0.538980000000    -0.554364   
O50      O      0.015160000000     0.470810000000     0.539550000000    -0.556779   
O51      O      0.060760000000     0.016410000000     0.538980000000    -0.55466    
O52      O      0.470810000000     0.515160000000     0.539550000000    -0.55548    
O53      O      0.470510000000     0.016110000000     0.986850000000    -0.550702   
O54      O      0.060460000000     0.514860000000     0.986300000000    -0.548418   
O55      O      0.516120000000     0.470500000000     0.986850000000    -0.550161   
O56      O      0.014870000000     0.060460000000     0.986300000000    -0.549842   
O57      O      0.018200000000     0.062210000000     0.738910000000    -0.556821   
O58      O      0.518150000000     0.472330000000     0.734440000000    -0.551765   
O59      O      0.472340000000     0.018140000000     0.734440000000    -0.552218   
O60      O      0.062220000000     0.518190000000     0.738910000000    -0.556636   
O61      O      0.059450000000     0.013630000000     0.791340000000    -0.551721   
O62      O      0.469570000000     0.513580000000     0.786880000000    -0.557976   
O63      O      0.013590000000     0.469550000000     0.786880000000    -0.559287   
O64      O      0.513650000000     0.059430000000     0.791350000000    -0.550263   
O65      O      0.041550000000     0.267190000000     0.557940000000    -0.552567   
O66      O      0.043100000000     0.264160000000     0.968530000000    -0.545818   
O67      O      0.042340000000     0.310590000000     0.511020000000    -0.551727   
O68      O      0.042290000000     0.220730000000     0.015480000000    -0.552035   
O69      O      0.489720000000     0.220790000000     0.509010000000    -0.553874   
O70      O      0.489630000000     0.310530000000     0.016200000000    -0.554049   
O71      O      0.490430000000     0.268700000000     0.968000000000    -0.550066   
O72      O      0.488880000000     0.262640000000     0.557250000000    -0.553789   
O73      O      0.488710000000     0.263540000000     0.718820000000    -0.551982   
O74      O      0.490480000000     0.267590000000     0.808200000000    -0.558958   
O75      O      0.489000000000     0.310500000000     0.762260000000    -0.555618   
O76      O      0.490140000000     0.220620000000     0.766510000000    -0.554421   
O77      O      0.043010000000     0.221250000000     0.763320000000    -0.552511   
O78      O      0.041900000000     0.311170000000     0.759650000000    -0.551478   
O79      O      0.043340000000     0.267850000000     0.807050000000    -0.549565   
O80      O      0.041550000000     0.264550000000     0.717680000000    -0.556476   
O81      O      0.262640000000     0.488860000000     0.557240000000    -0.553683   
O82      O      0.268700000000     0.490420000000     0.967980000000    -0.549981   
O83      O      0.310530000000     0.489620000000     0.516180000000    -0.553879   
O84      O      0.220790000000     0.489710000000     0.009000000000    -0.555092   
O85      O      0.220740000000     0.042270000000     0.515470000000    -0.551978   
O86      O      0.310590000000     0.042330000000     0.011010000000    -0.552776   
O87      O      0.264160000000     0.043090000000     0.968520000000    -0.54596    
O88      O      0.267190000000     0.041530000000     0.557920000000    -0.552684   
O89      O      0.263560000000     0.488690000000     0.718810000000    -0.552122   
O90      O      0.267600000000     0.490460000000     0.808180000000    -0.558913   
O91      O      0.220630000000     0.490110000000     0.766490000000    -0.554311   
O92      O      0.310520000000     0.488980000000     0.762250000000    -0.555313   
O93      O      0.311180000000     0.041890000000     0.759640000000    -0.551374   
O94      O      0.221260000000     0.042990000000     0.763300000000    -0.552384   
O95      O      0.267860000000     0.043320000000     0.807030000000    -0.549526   
O96      O      0.264560000000     0.041540000000     0.717660000000    -0.556346   
O97      O      0.516410000000     0.560760000000     0.038980000000    -0.5537     
O98      O      0.015160000000     0.970810000000     0.039550000000    -0.547522   
O99      O      0.060760000000     0.516410000000     0.038980000000    -0.552088   
O100     O      0.470810000000     0.015160000000     0.039550000000    -0.554603   
O101     O      0.470510000000     0.516110000000     0.486850000000    -0.555827   
O102     O      0.060460000000     0.014860000000     0.486300000000    -0.555244   
O103     O      0.516120000000     0.970500000000     0.486850000000    -0.548599   
O104     O      0.014870000000     0.560450000000     0.486300000000    -0.557006   
O105     O      0.018200000000     0.562210000000     0.238910000000    -0.558422   
O106     O      0.518150000000     0.972330000000     0.234440000000    -0.544687   
O107     O      0.472340000000     0.518140000000     0.234440000000    -0.551688   
O108     O      0.062220000000     0.018190000000     0.238910000000    -0.55692    
O109     O      0.059450000000     0.513630000000     0.291350000000    -0.550178   
O110     O      0.469570000000     0.013580000000     0.286880000000    -0.559429   
O111     O      0.013590000000     0.969550000000     0.286870000000    -0.552505   
O112     O      0.513650000000     0.559430000000     0.291350000000    -0.551696   
O113     O      0.041550000000     0.767190000000     0.057930000000    -0.55173    
O114     O      0.043100000000     0.764160000000     0.468530000000    -0.551042   
O115     O      0.042340000000     0.810590000000     0.011020000000    -0.552811   
O116     O      0.042290000000     0.720730000000     0.515480000000    -0.551795   
O117     O      0.489730000000     0.720790000000     0.009010000000    -0.555207   
O118     O      0.489630000000     0.810530000000     0.516200000000    -0.553638   
O119     O      0.490430000000     0.768700000000     0.468000000000    -0.555229   
O120     O      0.488880000000     0.762640000000     0.057250000000    -0.552727   
O121     O      0.488710000000     0.763540000000     0.218820000000    -0.55197    
O122     O      0.490480000000     0.767590000000     0.308200000000    -0.559017   
O123     O      0.489000000000     0.810500000000     0.262260000000    -0.555463   
O124     O      0.490140000000     0.720620000000     0.266510000000    -0.55446    
O125     O      0.043010000000     0.721250000000     0.263310000000    -0.552529   
O126     O      0.041910000000     0.811170000000     0.259650000000    -0.551196   
O127     O      0.043340000000     0.767860000000     0.307050000000    -0.549599   
O128     O      0.041550000000     0.764550000000     0.217670000000    -0.556307   
O129     O      0.262640000000     0.988860000000     0.057240000000    -0.545201   
O130     O      0.268700000000     0.990420000000     0.467980000000    -0.547805   
O131     O      0.310530000000     0.989620000000     0.016180000000    -0.546546   
O132     O      0.220790000000     0.989710000000     0.509000000000    -0.546502   
O133     O      0.220740000000     0.542270000000     0.015470000000    -0.555202   
O134     O      0.310590000000     0.542320000000     0.511010000000    -0.555053   
O135     O      0.264160000000     0.543090000000     0.468520000000    -0.554113   
O136     O      0.267190000000     0.541530000000     0.057920000000    -0.55455    
O137     O      0.263560000000     0.988690000000     0.218810000000    -0.544643   
O138     O      0.267600000000     0.990460000000     0.308180000000    -0.55177    
O139     O      0.220630000000     0.990120000000     0.266490000000    -0.547105   
O140     O      0.310520000000     0.988980000000     0.262250000000    -0.547953   
O141     O      0.311180000000     0.541890000000     0.259640000000    -0.554457   
O142     O      0.221260000000     0.542990000000     0.263300000000    -0.555359   
O143     O      0.267860000000     0.543320000000     0.307030000000    -0.552478   
O144     O      0.264560000000     0.541540000000     0.217660000000    -0.559478   
O145     O      0.516410000000     0.560760000000     0.538980000000    -0.55589    
O146     O      0.015160000000     0.970810000000     0.539550000000    -0.549689   
O147     O      0.060760000000     0.516410000000     0.538980000000    -0.554267   
O148     O      0.470810000000     0.015160000000     0.539550000000    -0.556791   
O149     O      0.470510000000     0.516110000000     0.986850000000    -0.550295   
O150     O      0.060460000000     0.014860000000     0.986300000000    -0.549743   
O151     O      0.516120000000     0.970500000000     0.986850000000    -0.543111   
O152     O      0.014870000000     0.560450000000     0.986300000000    -0.551491   
O153     O      0.018200000000     0.562210000000     0.738910000000    -0.558442   
O154     O      0.518150000000     0.972330000000     0.734440000000    -0.544603   
O155     O      0.472340000000     0.518140000000     0.734440000000    -0.551821   
O156     O      0.062220000000     0.018190000000     0.738910000000    -0.557016   
O157     O      0.059450000000     0.513630000000     0.791340000000    -0.550367   
O158     O      0.469570000000     0.013580000000     0.786880000000    -0.559335   
O159     O      0.013590000000     0.969550000000     0.786880000000    -0.552305   
O160     O      0.513650000000     0.559430000000     0.791350000000    -0.551681   
O161     O      0.041550000000     0.767190000000     0.557940000000    -0.552651   
O162     O      0.043100000000     0.764160000000     0.968530000000    -0.545944   
O163     O      0.042340000000     0.810590000000     0.511020000000    -0.551647   
O164     O      0.042290000000     0.720730000000     0.015480000000    -0.552134   
O165     O      0.489720000000     0.720790000000     0.509010000000    -0.553874   
O166     O      0.489630000000     0.810530000000     0.016200000000    -0.55386    
O167     O      0.490430000000     0.768700000000     0.968000000000    -0.550015   
O168     O      0.488880000000     0.762640000000     0.557250000000    -0.553766   
O169     O      0.488710000000     0.763540000000     0.718820000000    -0.551943   
O170     O      0.490480000000     0.767590000000     0.808200000000    -0.558928   
O171     O      0.489000000000     0.810500000000     0.762260000000    -0.555444   
O172     O      0.490140000000     0.720620000000     0.766510000000    -0.554417   
O173     O      0.043010000000     0.721250000000     0.763320000000    -0.552516   
O174     O      0.041910000000     0.811170000000     0.759650000000    -0.551181   
O175     O      0.043340000000     0.767860000000     0.807050000000    -0.549522   
O176     O      0.041550000000     0.764550000000     0.717680000000    -0.556456   
O177     O      0.262640000000     0.988860000000     0.557240000000    -0.546266   
O178     O      0.268700000000     0.990420000000     0.967980000000    -0.542627   
O179     O      0.310530000000     0.989620000000     0.516180000000    -0.546316   
O180     O      0.220790000000     0.989710000000     0.009000000000    -0.547643   
O181     O      0.220740000000     0.542270000000     0.515470000000    -0.554828   
O182     O      0.310590000000     0.542320000000     0.011010000000    -0.555986   
O183     O      0.264160000000     0.543090000000     0.968520000000    -0.548899   
O184     O      0.267190000000     0.541530000000     0.557920000000    -0.555662   
O185     O      0.263560000000     0.988690000000     0.718810000000    -0.544649   
O186     O      0.267600000000     0.990460000000     0.808180000000    -0.551734   
O187     O      0.220630000000     0.990120000000     0.766490000000    -0.547118   
O188     O      0.310510000000     0.988980000000     0.762250000000    -0.54803    
O189     O      0.311180000000     0.541890000000     0.759640000000    -0.554394   
O190     O      0.221260000000     0.542990000000     0.763300000000    -0.555296   
O191     O      0.267860000000     0.543320000000     0.807030000000    -0.552382   
O192     O      0.264560000000     0.541540000000     0.717660000000    -0.55945    
O193     O      0.016410000000     0.060760000000     0.038980000000    -0.552573   
O194     O      0.515160000000     0.470810000000     0.039550000000    -0.553288   
O195     O      0.560760000000     0.016410000000     0.038980000000    -0.554038   
O196     O      0.970810000000     0.515160000000     0.039550000000    -0.546241   
O197     O      0.970510000000     0.016110000000     0.486850000000    -0.549164   
O198     O      0.560460000000     0.514860000000     0.486300000000    -0.555461   
O199     O      0.016120000000     0.470500000000     0.486850000000    -0.556125   
O200     O      0.514870000000     0.060460000000     0.486300000000    -0.55399    
O201     O      0.518200000000     0.062210000000     0.238910000000    -0.556418   
O202     O      0.018150000000     0.472330000000     0.234440000000    -0.552237   
O203     O      0.972340000000     0.018140000000     0.234440000000    -0.544946   
O204     O      0.562220000000     0.518190000000     0.238910000000    -0.558156   
O205     O      0.559450000000     0.013630000000     0.291350000000    -0.553034   
O206     O      0.969570000000     0.513580000000     0.286880000000    -0.551132   
O207     O      0.513590000000     0.469550000000     0.286870000000    -0.558178   
O208     O      0.013650000000     0.059430000000     0.291350000000    -0.551587   
O209     O      0.541540000000     0.267190000000     0.057940000000    -0.55466    
O210     O      0.543100000000     0.264160000000     0.468530000000    -0.554005   
O211     O      0.542340000000     0.310590000000     0.011020000000    -0.555942   
O212     O      0.542290000000     0.220730000000     0.515480000000    -0.554792   
O213     O      0.989730000000     0.220790000000     0.009010000000    -0.547724   
O214     O      0.989630000000     0.310530000000     0.516200000000    -0.546284   
O215     O      0.990430000000     0.268700000000     0.468000000000    -0.547882   
O216     O      0.988880000000     0.262640000000     0.057250000000    -0.545415   
O217     O      0.988710000000     0.263540000000     0.218820000000    -0.544513   
O218     O      0.990480000000     0.267590000000     0.308200000000    -0.551807   
O219     O      0.988990000000     0.310500000000     0.262260000000    -0.548043   
O220     O      0.990140000000     0.220620000000     0.266510000000    -0.546996   
O221     O      0.543010000000     0.221250000000     0.263310000000    -0.555361   
O222     O      0.541900000000     0.311170000000     0.259650000000    -0.554545   
O223     O      0.543340000000     0.267850000000     0.307050000000    -0.552548   
O224     O      0.541550000000     0.264550000000     0.217680000000    -0.559558   
O225     O      0.762640000000     0.488860000000     0.057240000000    -0.552579   
O226     O      0.768700000000     0.490420000000     0.467980000000    -0.555204   
O227     O      0.810530000000     0.489620000000     0.016180000000    -0.554      
O228     O      0.720800000000     0.489710000000     0.509000000000    -0.554094   
O229     O      0.720740000000     0.042270000000     0.015470000000    -0.552156   
O230     O      0.810590000000     0.042330000000     0.511010000000    -0.551743   
O231     O      0.764160000000     0.043090000000     0.468520000000    -0.551162   
O232     O      0.767190000000     0.041530000000     0.057920000000    -0.551565   
O233     O      0.763560000000     0.488690000000     0.218810000000    -0.552121   
O234     O      0.767600000000     0.490460000000     0.308180000000    -0.558979   
O235     O      0.720630000000     0.490110000000     0.266490000000    -0.554371   
O236     O      0.810520000000     0.488980000000     0.262250000000    -0.555271   
O237     O      0.811180000000     0.041890000000     0.259640000000    -0.551389   
O238     O      0.721260000000     0.042990000000     0.263300000000    -0.552451   
O239     O      0.767860000000     0.043320000000     0.307030000000    -0.549598   
O240     O      0.764560000000     0.041540000000     0.217660000000    -0.556365   
O241     O      0.016410000000     0.060760000000     0.538980000000    -0.554752   
O242     O      0.515160000000     0.470810000000     0.539550000000    -0.55548    
O243     O      0.560760000000     0.016410000000     0.538980000000    -0.556222   
O244     O      0.970810000000     0.515160000000     0.539550000000    -0.548409   
O245     O      0.970510000000     0.016110000000     0.986850000000    -0.543692   
O246     O      0.560460000000     0.514860000000     0.986300000000    -0.549938   
O247     O      0.016120000000     0.470500000000     0.986850000000    -0.550604   
O248     O      0.514870000000     0.060460000000     0.986300000000    -0.548476   
O249     O      0.518200000000     0.062210000000     0.738910000000    -0.556439   
O250     O      0.018150000000     0.472330000000     0.734440000000    -0.552174   
O251     O      0.972340000000     0.018140000000     0.734440000000    -0.544968   
O252     O      0.562220000000     0.518190000000     0.738910000000    -0.558261   
O253     O      0.559450000000     0.013630000000     0.791340000000    -0.553218   
O254     O      0.969570000000     0.513580000000     0.786880000000    -0.551134   
O255     O      0.513590000000     0.469550000000     0.786880000000    -0.557967   
O256     O      0.013650000000     0.059430000000     0.791350000000    -0.551573   
O257     O      0.541550000000     0.267190000000     0.557940000000    -0.555643   
O258     O      0.543100000000     0.264160000000     0.968530000000    -0.548796   
O259     O      0.542340000000     0.310590000000     0.511020000000    -0.554825   
O260     O      0.542290000000     0.220730000000     0.015480000000    -0.555087   
O261     O      0.989720000000     0.220790000000     0.509010000000    -0.546425   
O262     O      0.989630000000     0.310530000000     0.016200000000    -0.546479   
O263     O      0.990430000000     0.268700000000     0.968000000000    -0.542668   
O264     O      0.988880000000     0.262640000000     0.557250000000    -0.546486   
O265     O      0.988710000000     0.263540000000     0.718820000000    -0.544622   
O266     O      0.990480000000     0.267590000000     0.808200000000    -0.55155    
O267     O      0.989000000000     0.310500000000     0.762260000000    -0.548187   
O268     O      0.990140000000     0.220620000000     0.766510000000    -0.546951   
O269     O      0.543010000000     0.221250000000     0.763320000000    -0.555507   
O270     O      0.541900000000     0.311170000000     0.759650000000    -0.554466   
O271     O      0.543340000000     0.267850000000     0.807050000000    -0.552444   
O272     O      0.541550000000     0.264550000000     0.717680000000    -0.559556   
O273     O      0.762640000000     0.488860000000     0.557240000000    -0.553699   
O274     O      0.768700000000     0.490420000000     0.967980000000    -0.549946   
O275     O      0.810530000000     0.489620000000     0.516180000000    -0.553821   
O276     O      0.720790000000     0.489710000000     0.009000000000    -0.555072   
O277     O      0.720740000000     0.042270000000     0.515470000000    -0.55182    
O278     O      0.810590000000     0.042330000000     0.011000000000    -0.552647   
O279     O      0.764160000000     0.043090000000     0.968520000000    -0.545923   
O280     O      0.767190000000     0.041530000000     0.557920000000    -0.552637   
O281     O      0.763560000000     0.488690000000     0.718810000000    -0.552089   
O282     O      0.767600000000     0.490460000000     0.808180000000    -0.558887   
O283     O      0.720630000000     0.490110000000     0.766490000000    -0.554313   
O284     O      0.810520000000     0.488980000000     0.762250000000    -0.555221   
O285     O      0.811180000000     0.041890000000     0.759640000000    -0.551293   
O286     O      0.721260000000     0.042990000000     0.763300000000    -0.552392   
O287     O      0.767860000000     0.043320000000     0.807030000000    -0.549499   
O288     O      0.764560000000     0.041540000000     0.717660000000    -0.556331   
O289     O      0.016410000000     0.560760000000     0.038980000000    -0.554091   
O290     O      0.515160000000     0.970810000000     0.039550000000    -0.546239   
O291     O      0.560760000000     0.516410000000     0.038980000000    -0.55364    
O292     O      0.970810000000     0.015160000000     0.039550000000    -0.547533   
O293     O      0.970510000000     0.516110000000     0.486850000000    -0.548782   
O294     O      0.560460000000     0.014860000000     0.486300000000    -0.556776   
O295     O      0.016120000000     0.970500000000     0.486850000000    -0.549015   
O296     O      0.514870000000     0.560450000000     0.486300000000    -0.555654   
O297     O      0.518200000000     0.562210000000     0.238910000000    -0.558036   
O298     O      0.018150000000     0.972330000000     0.234440000000    -0.545091   
O299     O      0.972340000000     0.518140000000     0.234440000000    -0.544555   
O300     O      0.562220000000     0.018190000000     0.238910000000    -0.558572   
O301     O      0.559450000000     0.513630000000     0.291350000000    -0.551643   
O302     O      0.969570000000     0.013580000000     0.286880000000    -0.552434   
O303     O      0.513590000000     0.969550000000     0.286870000000    -0.55121    
O304     O      0.013650000000     0.559430000000     0.291350000000    -0.553057   
O305     O      0.541550000000     0.767190000000     0.057940000000    -0.554535   
O306     O      0.543100000000     0.764160000000     0.468530000000    -0.55398    
O307     O      0.542340000000     0.810590000000     0.011020000000    -0.555756   
O308     O      0.542290000000     0.720730000000     0.515480000000    -0.55479    
O309     O      0.989730000000     0.720790000000     0.009010000000    -0.547747   
O310     O      0.989630000000     0.810530000000     0.516200000000    -0.54622    
O311     O      0.990430000000     0.768700000000     0.468000000000    -0.547865   
O312     O      0.988880000000     0.762640000000     0.057250000000    -0.545268   
O313     O      0.988710000000     0.763540000000     0.218820000000    -0.544513   
O314     O      0.990480000000     0.767590000000     0.308200000000    -0.551809   
O315     O      0.989000000000     0.810500000000     0.262260000000    -0.548105   
O316     O      0.990140000000     0.720620000000     0.266510000000    -0.547031   
O317     O      0.543010000000     0.721250000000     0.263310000000    -0.555574   
O318     O      0.541900000000     0.811170000000     0.259650000000    -0.554537   
O319     O      0.543340000000     0.767860000000     0.307050000000    -0.552519   
O320     O      0.541550000000     0.764550000000     0.217680000000    -0.559551   
O321     O      0.762640000000     0.988860000000     0.057240000000    -0.545249   
O322     O      0.768700000000     0.990420000000     0.467980000000    -0.547966   
O323     O      0.810530000000     0.989620000000     0.016180000000    -0.546537   
O324     O      0.720790000000     0.989710000000     0.509000000000    -0.546517   
O325     O      0.720740000000     0.542270000000     0.015470000000    -0.555032   
O326     O      0.810590000000     0.542320000000     0.511010000000    -0.55478    
O327     O      0.764160000000     0.543090000000     0.468520000000    -0.554087   
O328     O      0.767190000000     0.541530000000     0.057920000000    -0.554515   
O329     O      0.763560000000     0.988690000000     0.218810000000    -0.544639   
O330     O      0.767600000000     0.990460000000     0.308180000000    -0.551772   
O331     O      0.720630000000     0.990120000000     0.266490000000    -0.547131   
O332     O      0.810520000000     0.988980000000     0.262250000000    -0.547897   
O333     O      0.811180000000     0.541890000000     0.259640000000    -0.554357   
O334     O      0.721260000000     0.542990000000     0.263300000000    -0.555362   
O335     O      0.767860000000     0.543320000000     0.307030000000    -0.552442   
O336     O      0.764560000000     0.541540000000     0.217660000000    -0.559452   
O337     O      0.016410000000     0.560760000000     0.538980000000    -0.556276   
O338     O      0.515160000000     0.970810000000     0.539550000000    -0.548405   
O339     O      0.560760000000     0.516410000000     0.538980000000    -0.555829   
O340     O      0.970810000000     0.015160000000     0.539550000000    -0.549699   
O341     O      0.970510000000     0.516110000000     0.986850000000    -0.543298   
O342     O      0.560460000000     0.014860000000     0.986300000000    -0.551262   
O343     O      0.016120000000     0.970500000000     0.986850000000    -0.54354    
O344     O      0.514870000000     0.560450000000     0.986300000000    -0.550132   
O345     O      0.518200000000     0.562210000000     0.738910000000    -0.558062   
O346     O      0.018150000000     0.972330000000     0.734440000000    -0.54503    
O347     O      0.972340000000     0.518140000000     0.734440000000    -0.544578   
O348     O      0.562220000000     0.018190000000     0.738910000000    -0.558636   
O349     O      0.559450000000     0.513630000000     0.791340000000    -0.551826   
O350     O      0.969570000000     0.013580000000     0.786880000000    -0.552433   
O351     O      0.513590000000     0.969560000000     0.786880000000    -0.551148   
O352     O      0.013650000000     0.559430000000     0.791350000000    -0.553043   
O353     O      0.541550000000     0.767190000000     0.557940000000    -0.5556     
O354     O      0.543100000000     0.764160000000     0.968530000000    -0.548771   
O355     O      0.542340000000     0.810590000000     0.511020000000    -0.554644   
O356     O      0.542290000000     0.720730000000     0.015480000000    -0.555077   
O357     O      0.989720000000     0.720790000000     0.509010000000    -0.546449   
O358     O      0.989630000000     0.810530000000     0.016200000000    -0.546416   
O359     O      0.990430000000     0.768700000000     0.967990000000    -0.542565   
O360     O      0.988880000000     0.762640000000     0.557250000000    -0.546381   
O361     O      0.988710000000     0.763540000000     0.718820000000    -0.544613   
O362     O      0.990480000000     0.767590000000     0.808200000000    -0.551548   
O363     O      0.989000000000     0.810500000000     0.762260000000    -0.54805    
O364     O      0.990140000000     0.720620000000     0.766510000000    -0.546969   
O365     O      0.543010000000     0.721250000000     0.763320000000    -0.555505   
O366     O      0.541910000000     0.811170000000     0.759650000000    -0.554156   
O367     O      0.543340000000     0.767860000000     0.807050000000    -0.552391   
O368     O      0.541550000000     0.764550000000     0.717680000000    -0.559524   
O369     O      0.762640000000     0.988860000000     0.557240000000    -0.546102   
O370     O      0.768700000000     0.990420000000     0.967980000000    -0.542655   
O371     O      0.810530000000     0.989620000000     0.516180000000    -0.546271   
O372     O      0.720800000000     0.989710000000     0.009000000000    -0.5478     
O373     O      0.720740000000     0.542270000000     0.515470000000    -0.554958   
O374     O      0.810590000000     0.542320000000     0.011010000000    -0.55605    
O375     O      0.764160000000     0.543090000000     0.968520000000    -0.54887    
O376     O      0.767190000000     0.541530000000     0.557920000000    -0.555606   
O377     O      0.763560000000     0.988690000000     0.718810000000    -0.544644   
O378     O      0.767600000000     0.990460000000     0.808180000000    -0.551736   
O379     O      0.720630000000     0.990120000000     0.766490000000    -0.547144   
O380     O      0.810510000000     0.988980000000     0.762250000000    -0.547974   
O381     O      0.811180000000     0.541890000000     0.759640000000    -0.554302   
O382     O      0.721260000000     0.542990000000     0.763300000000    -0.555293   
O383     O      0.767860000000     0.543320000000     0.807030000000    -0.552344   
O384     O      0.764560000000     0.541540000000     0.717660000000    -0.559425   
V1       V      0.015800000000     0.015800000000     0.041370000000     1.37056    
V2       V      0.015470000000     0.515470000000     0.484470000000     1.38813    
V3       V      0.517670000000     0.017660000000     0.234550000000     1.38636    
V4       V      0.514120000000     0.514100000000     0.291230000000     1.39554    
V5       V      0.044490000000     0.265660000000     0.013290000000     1.37566    
V6       V      0.487490000000     0.265660000000     0.512570000000     1.39229    
V7       V      0.487470000000     0.265530000000     0.263840000000     1.3952     
V8       V      0.044560000000     0.266240000000     0.262040000000     1.38424    
V9       V      0.265660000000     0.487480000000     0.012560000000     1.38496    
V10      V      0.265660000000     0.044470000000     0.513270000000     1.38317    
V11      V      0.265540000000     0.487450000000     0.263820000000     1.3952     
V12      V      0.266250000000     0.044540000000     0.262020000000     1.38452    
V13      V      0.015800000000     0.015800000000     0.541370000000     1.37915    
V14      V      0.015470000000     0.515470000000     0.984470000000     1.3924     
V15      V      0.517670000000     0.017660000000     0.734550000000     1.38649    
V16      V      0.514120000000     0.514100000000     0.791240000000     1.39581    
V17      V      0.044490000000     0.265660000000     0.513290000000     1.38267    
V18      V      0.487490000000     0.265660000000     0.012570000000     1.38553    
V19      V      0.487470000000     0.265530000000     0.763840000000     1.39544    
V20      V      0.044560000000     0.266240000000     0.762040000000     1.38474    
V21      V      0.265660000000     0.487480000000     0.512560000000     1.39186    
V22      V      0.265660000000     0.044470000000     0.013270000000     1.37634    
V23      V      0.265540000000     0.487450000000     0.763820000000     1.39532    
V24      V      0.266250000000     0.044540000000     0.762020000000     1.38458    
V25      V      0.015800000000     0.515800000000     0.041370000000     1.37965    
V26      V      0.015470000000     0.015470000000     0.484470000000     1.3784     
V27      V      0.517670000000     0.517660000000     0.234550000000     1.3953     
V28      V      0.514120000000     0.014100000000     0.291230000000     1.38594    
V29      V      0.044490000000     0.765660000000     0.013290000000     1.3764     
V30      V      0.487490000000     0.765660000000     0.512570000000     1.39231    
V31      V      0.487470000000     0.765530000000     0.263840000000     1.39527    
V32      V      0.044560000000     0.766240000000     0.262040000000     1.38429    
V33      V      0.265660000000     0.987480000000     0.012560000000     1.39072    
V34      V      0.265670000000     0.544470000000     0.513270000000     1.39499    
V35      V      0.265540000000     0.987450000000     0.263820000000     1.40095    
V36      V      0.266250000000     0.544540000000     0.262020000000     1.39619    
V37      V      0.015800000000     0.515800000000     0.541370000000     1.38828    
V38      V      0.015470000000     0.015470000000     0.984470000000     1.38269    
V39      V      0.517670000000     0.517660000000     0.734550000000     1.39552    
V40      V      0.514120000000     0.014100000000     0.791240000000     1.38652    
V41      V      0.044490000000     0.765660000000     0.513290000000     1.3828     
V42      V      0.487490000000     0.765660000000     0.012570000000     1.38546    
V43      V      0.487470000000     0.765530000000     0.763840000000     1.39541    
V44      V      0.044560000000     0.766240000000     0.762040000000     1.38475    
V45      V      0.265660000000     0.987480000000     0.512560000000     1.39761    
V46      V      0.265660000000     0.544470000000     0.013270000000     1.38811    
V47      V      0.265540000000     0.987450000000     0.763820000000     1.40138    
V48      V      0.266250000000     0.544540000000     0.762020000000     1.39632    
V49      V      0.515800000000     0.015800000000     0.041370000000     1.37971    
V50      V      0.515470000000     0.515470000000     0.484470000000     1.39754    
V51      V      0.017670000000     0.017660000000     0.234550000000     1.37739    
V52      V      0.014120000000     0.514100000000     0.291230000000     1.38593    
V53      V      0.544490000000     0.265660000000     0.013290000000     1.38765    
V54      V      0.987490000000     0.265660000000     0.512570000000     1.39812    
V55      V      0.987470000000     0.265530000000     0.263840000000     1.40102    
V56      V      0.544560000000     0.266240000000     0.262040000000     1.39625    
V57      V      0.765660000000     0.487480000000     0.012560000000     1.38498    
V58      V      0.765670000000     0.044470000000     0.513270000000     1.38325    
V59      V      0.765540000000     0.487450000000     0.263820000000     1.39521    
V60      V      0.766250000000     0.044540000000     0.262020000000     1.38459    
V61      V      0.515800000000     0.015800000000     0.541370000000     1.38835    
V62      V      0.515470000000     0.515470000000     0.984470000000     1.40179    
V63      V      0.017670000000     0.017660000000     0.734550000000     1.37754    
V64      V      0.014120000000     0.514100000000     0.791240000000     1.38625    
V65      V      0.544490000000     0.265660000000     0.513290000000     1.39448    
V66      V      0.987500000000     0.265660000000     0.012570000000     1.39119    
V67      V      0.987470000000     0.265530000000     0.763830000000     1.4011     
V68      V      0.544560000000     0.266240000000     0.762040000000     1.39644    
V69      V      0.765660000000     0.487480000000     0.512560000000     1.3922     
V70      V      0.765660000000     0.044470000000     0.013270000000     1.37632    
V71      V      0.765540000000     0.487450000000     0.763820000000     1.39533    
V72      V      0.766250000000     0.044540000000     0.762020000000     1.38465    
V73      V      0.515800000000     0.515800000000     0.041370000000     1.3888     
V74      V      0.515470000000     0.015470000000     0.484470000000     1.38782    
V75      V      0.017670000000     0.517660000000     0.234550000000     1.38636    
V76      V      0.014120000000     0.014100000000     0.291230000000     1.3763     
V77      V      0.544490000000     0.765660000000     0.013290000000     1.38768    
V78      V      0.987490000000     0.765660000000     0.512570000000     1.39807    
V79      V      0.987470000000     0.765530000000     0.263840000000     1.40103    
V80      V      0.544560000000     0.766240000000     0.262040000000     1.39639    
V81      V      0.765660000000     0.987480000000     0.012560000000     1.39103    
V82      V      0.765660000000     0.544470000000     0.513270000000     1.39495    
V83      V      0.765540000000     0.987450000000     0.263820000000     1.40094    
V84      V      0.766250000000     0.544540000000     0.262020000000     1.39622    
V85      V      0.515800000000     0.515800000000     0.541370000000     1.39747    
V86      V      0.515470000000     0.015470000000     0.984470000000     1.39209    
V87      V      0.017670000000     0.517660000000     0.734550000000     1.38652    
V88      V      0.014120000000     0.014100000000     0.791240000000     1.37664    
V89      V      0.544490000000     0.765660000000     0.513290000000     1.39451    
V90      V      0.987490000000     0.765660000000     0.012570000000     1.39085    
V91      V      0.987470000000     0.765530000000     0.763830000000     1.40105    
V92      V      0.544560000000     0.766240000000     0.762040000000     1.39641    
V93      V      0.765660000000     0.987480000000     0.512550000000     1.39761    
V94      V      0.765670000000     0.544470000000     0.013270000000     1.38814    
V95      V      0.765540000000     0.987450000000     0.763820000000     1.40137    
V96      V      0.766250000000     0.544540000000     0.762020000000     1.39634    


