data_structure

_audit_creation_method RASPA-1.0
_audit_creation_date 2023-5-23
_audit_author_name 'Poobodin Mano'

_cell_length_a    42.4383
_cell_length_b    42.4383
_cell_length_c    42.2189
_cell_angle_alpha 90
_cell_angle_beta  90
_cell_angle_gamma 90
_cell_volume      76036.6

_symmetry_cell_setting          triclinic
_symmetry_space_group_name_Hall 'P 1'
_symmetry_space_group_name_H-M  'P 1'
_symmetry_Int_Tables_number     1

_symmetry_equiv_pos_as_xyz 'x,y,z'

loop_
_atom_site_label
_atom_site_type_symbol
_atom_site_fract_x
_atom_site_fract_y
_atom_site_fract_z
_atom_site_charge
C1       C      0.012890000000     0.512900000000     0.325490000000     0.467475   
C2       C      0.012890000000     0.512900000000     0.205660000000     0.467728   
C3       C      0.512890000000     0.453120000000     0.265570000000     0.475679   
C4       C      0.512890000000     0.072680000000     0.265570000000     0.474952   
C5       C      0.512890000000     0.262900000000     0.325490000000     0.477814   
C6       C      0.512890000000     0.262900000000     0.205650000000     0.477856   
C7       C      0.012890000000     0.322680000000     0.265570000000     0.465752   
C8       C      0.012890000000     0.203120000000     0.265570000000     0.465611   
C9       C      0.262900000000     0.012890000000     0.325480000000     0.476473   
C10      C      0.262900000000     0.012890000000     0.205670000000     0.476393   
C11      C      0.262910000000     0.072660000000     0.265570000000     0.474579   
C12      C      0.262910000000     0.453120000000     0.265580000000     0.475468   
C13      C      0.262910000000     0.262890000000     0.325480000000     0.477926   
C14      C      0.262910000000     0.262890000000     0.205670000000     0.477621   
C15      C      0.262910000000     0.203120000000     0.265580000000     0.475492   
C16      C      0.262910000000     0.322660000000     0.265580000000     0.475423   
C17      C      0.012890000000     0.512890000000     0.455660000000     0.476456   
C18      C      0.012890000000     0.512890000000     0.075490000000     0.475334   
C19      C      0.072670000000     0.012890000000     0.015570000000     0.462834   
C20      C      0.453110000000     0.012890000000     0.015570000000     0.463488   
C21      C      0.512900000000     0.262900000000     0.455660000000     0.477713   
C22      C      0.512900000000     0.262910000000     0.075480000000     0.476888   
C23      C      0.453130000000     0.262900000000     0.015570000000     0.473478   
C24      C      0.072670000000     0.262900000000     0.015570000000     0.47286    
C25      C      0.262890000000     0.512890000000     0.455660000000     0.47785    
C26      C      0.262890000000     0.512890000000     0.075490000000     0.477086   
C27      C      0.322670000000     0.012890000000     0.015580000000     0.463993   
C28      C      0.203110000000     0.012890000000     0.015580000000     0.463859   
C29      C      0.262900000000     0.262900000000     0.455670000000     0.477681   
C30      C      0.262900000000     0.262900000000     0.075490000000     0.476656   
C31      C      0.322670000000     0.262900000000     0.015580000000     0.473655   
C32      C      0.203130000000     0.262900000000     0.015580000000     0.473795   
C33      C      0.371450000000     0.290580000000     0.518070000000     0.0302109  
C34      C      0.371450000000     0.235230000000     0.013080000000     0.0293029  
C35      C      0.404350000000     0.235230000000     0.013070000000     0.0292701  
C36      C      0.404350000000     0.290580000000     0.518070000000     0.0301947  
C37      C      0.121450000000     0.235230000000     0.518070000000     0.030122   
C38      C      0.121450000000     0.290580000000     0.013080000000     0.029154   
C39      C      0.154350000000     0.290580000000     0.013080000000     0.029206   
C40      C      0.154350000000     0.235230000000     0.518080000000     0.0301811  
C41      C      0.404350000000     0.485100000000     0.515460000000     0.0303226  
C42      C      0.404350000000     0.040680000000     0.015690000000     0.0280419  
C43      C      0.371440000000     0.040680000000     0.015480000000     0.0280436  
C44      C      0.371440000000     0.485100000000     0.515680000000     0.0302928  
C45      C      0.121440000000     0.485100000000     0.015680000000     0.0292274  
C46      C      0.121440000000     0.040680000000     0.515460000000     0.0288174  
C47      C      0.154350000000     0.040680000000     0.515670000000     0.0289573  
C48      C      0.154350000000     0.485100000000     0.015470000000     0.0293655  
C49      C      0.283170000000     0.243800000000     0.157100000000     0.0323927  
C50      C      0.242640000000     0.282000000000     0.157100000000     0.0323949  
C51      C      0.243810000000     0.283170000000     0.124060000000     0.0322746  
C52      C      0.282010000000     0.242640000000     0.124050000000     0.0323619  
C53      C      0.283170000000     0.281990000000     0.374060000000     0.0323186  
C54      C      0.242640000000     0.243790000000     0.374060000000     0.0323927  
C55      C      0.243800000000     0.242630000000     0.407100000000     0.0323181  
C56      C      0.282000000000     0.283160000000     0.407100000000     0.0324129  
C57      C      0.281890000000     0.033250000000     0.124060000000     0.03084    
C58      C      0.243910000000     0.492520000000     0.124060000000     0.0323243  
C59      C      0.242730000000     0.493690000000     0.157110000000     0.0324175  
C60      C      0.283070000000     0.032090000000     0.157100000000     0.0312637  
C61      C      0.281890000000     0.492530000000     0.407090000000     0.0325091  
C62      C      0.243910000000     0.033260000000     0.407090000000     0.0307884  
C63      C      0.242730000000     0.032090000000     0.374050000000     0.0312766  
C64      C      0.283070000000     0.493690000000     0.374050000000     0.0322587  
C65      C      0.290580000000     0.404340000000     0.263080000000     0.0302882  
C66      C      0.235230000000     0.404340000000     0.268080000000     0.0302187  
C67      C      0.235230000000     0.371440000000     0.268080000000     0.0302279  
C68      C      0.290580000000     0.371440000000     0.263080000000     0.0302948  
C69      C      0.235230000000     0.121440000000     0.263070000000     0.0301087  
C70      C      0.290580000000     0.121440000000     0.268070000000     0.0301515  
C71      C      0.290580000000     0.154340000000     0.268070000000     0.0302529  
C72      C      0.235230000000     0.154340000000     0.263070000000     0.0301724  
C73      C      0.033260000000     0.281900000000     0.157090000000     0.0308392  
C74      C      0.492530000000     0.243910000000     0.157080000000     0.0324254  
C75      C      0.493690000000     0.242740000000     0.124040000000     0.0322664  
C76      C      0.032100000000     0.283070000000     0.124040000000     0.0312845  
C77      C      0.032100000000     0.242730000000     0.407100000000     0.0312498  
C78      C      0.493700000000     0.283070000000     0.407100000000     0.0323423  
C79      C      0.492530000000     0.281890000000     0.374060000000     0.0324485  
C80      C      0.033260000000     0.243910000000     0.374050000000     0.030849   
C81      C      0.033160000000     0.531990000000     0.157090000000     0.0308356  
C82      C      0.492620000000     0.993800000000     0.157090000000     0.0393334  
C83      C      0.493800000000     0.992620000000     0.124050000000     0.0382348  
C84      C      0.031990000000     0.533160000000     0.124050000000     0.031175   
C85      C      0.033160000000     0.493800000000     0.374050000000     0.0307279  
C86      C      0.492620000000     0.031990000000     0.374050000000     0.0313219  
C87      C      0.493790000000     0.033160000000     0.407100000000     0.0307404  
C88      C      0.031980000000     0.492620000000     0.407090000000     0.0312968  
C89      C      0.040680000000     0.404350000000     0.265460000000     0.0289699  
C90      C      0.485100000000     0.404350000000     0.265680000000     0.0303173  
C91      C      0.485100000000     0.371450000000     0.265470000000     0.0303436  
C92      C      0.040680000000     0.371450000000     0.265670000000     0.0289961  
C93      C      0.040680000000     0.121450000000     0.265680000000     0.0288645  
C94      C      0.485100000000     0.121450000000     0.265460000000     0.0302088  
C95      C      0.485100000000     0.154350000000     0.265670000000     0.0302821  
C96      C      0.040680000000     0.154350000000     0.265470000000     0.0289366  
C97      C      0.012890000000     0.512900000000     0.825490000000     0.467702   
C98      C      0.012890000000     0.512900000000     0.705660000000     0.46771    
C99      C      0.512890000000     0.453120000000     0.765570000000     0.475724   
C100     C      0.512890000000     0.072680000000     0.765570000000     0.474999   
C101     C      0.512890000000     0.262900000000     0.825490000000     0.478001   
C102     C      0.512890000000     0.262900000000     0.705650000000     0.477811   
C103     C      0.012890000000     0.322680000000     0.765570000000     0.465835   
C104     C      0.012890000000     0.203120000000     0.765570000000     0.465694   
C105     C      0.262900000000     0.012890000000     0.825480000000     0.476656   
C106     C      0.262900000000     0.012890000000     0.705670000000     0.476345   
C107     C      0.262910000000     0.072660000000     0.765570000000     0.47466    
C108     C      0.262910000000     0.453120000000     0.765580000000     0.475516   
C109     C      0.262910000000     0.262890000000     0.825490000000     0.478037   
C110     C      0.262910000000     0.262890000000     0.705670000000     0.477571   
C111     C      0.262910000000     0.203120000000     0.765570000000     0.47554    
C112     C      0.262910000000     0.322660000000     0.765580000000     0.475471   
C113     C      0.012890000000     0.512890000000     0.955660000000     0.475253   
C114     C      0.012890000000     0.512890000000     0.575490000000     0.476187   
C115     C      0.072670000000     0.012890000000     0.515570000000     0.464553   
C116     C      0.453110000000     0.012890000000     0.515570000000     0.465208   
C117     C      0.512900000000     0.262900000000     0.955660000000     0.476519   
C118     C      0.512900000000     0.262910000000     0.575470000000     0.47782    
C119     C      0.453130000000     0.262900000000     0.515570000000     0.475232   
C120     C      0.072670000000     0.262900000000     0.515570000000     0.474613   
C121     C      0.262890000000     0.512890000000     0.955660000000     0.476609   
C122     C      0.262890000000     0.512890000000     0.575490000000     0.477897   
C123     C      0.322670000000     0.012890000000     0.515580000000     0.465738   
C124     C      0.203110000000     0.012890000000     0.515570000000     0.465585   
C125     C      0.262900000000     0.262900000000     0.955670000000     0.476446   
C126     C      0.262900000000     0.262900000000     0.575480000000     0.477579   
C127     C      0.322670000000     0.262900000000     0.515570000000     0.475397   
C128     C      0.203130000000     0.262900000000     0.515580000000     0.475536   
C129     C      0.371450000000     0.290580000000     0.018070000000     0.029294   
C130     C      0.371450000000     0.235230000000     0.513080000000     0.030247   
C131     C      0.404350000000     0.235230000000     0.513070000000     0.0302194  
C132     C      0.404350000000     0.290580000000     0.018070000000     0.0292789  
C133     C      0.121450000000     0.235230000000     0.018070000000     0.0292056  
C134     C      0.121450000000     0.290580000000     0.513080000000     0.0301006  
C135     C      0.154350000000     0.290580000000     0.513080000000     0.0301536  
C136     C      0.154350000000     0.235230000000     0.018080000000     0.0292687  
C137     C      0.404350000000     0.485100000000     0.015460000000     0.0293886  
C138     C      0.404350000000     0.040680000000     0.515690000000     0.0289671  
C139     C      0.371440000000     0.040680000000     0.515480000000     0.0289662  
C140     C      0.371440000000     0.485100000000     0.015680000000     0.0293551  
C141     C      0.121440000000     0.485100000000     0.515680000000     0.0301593  
C142     C      0.121440000000     0.040680000000     0.015460000000     0.0278913  
C143     C      0.154350000000     0.040680000000     0.015670000000     0.0280271  
C144     C      0.154350000000     0.485100000000     0.515470000000     0.0302944  
C145     C      0.283170000000     0.243800000000     0.657100000000     0.0323277  
C146     C      0.242640000000     0.282000000000     0.657100000000     0.0323302  
C147     C      0.243810000000     0.283170000000     0.624060000000     0.0322782  
C148     C      0.282010000000     0.242640000000     0.624050000000     0.0323654  
C149     C      0.283170000000     0.281990000000     0.874060000000     0.0329852  
C150     C      0.242640000000     0.243790000000     0.874060000000     0.0330615  
C151     C      0.243800000000     0.242630000000     0.907100000000     0.0330839  
C152     C      0.282000000000     0.283160000000     0.907100000000     0.0331851  
C153     C      0.281890000000     0.033250000000     0.624060000000     0.0308574  
C154     C      0.243910000000     0.492520000000     0.624060000000     0.0323455  
C155     C      0.242730000000     0.493690000000     0.657100000000     0.032316   
C156     C      0.283070000000     0.032090000000     0.657100000000     0.0311894  
C157     C      0.281890000000     0.492530000000     0.907090000000     0.0332764  
C158     C      0.243910000000     0.033260000000     0.907090000000     0.0315621  
C159     C      0.242730000000     0.032090000000     0.874050000000     0.0319247  
C160     C      0.283070000000     0.493690000000     0.874050000000     0.0329064  
C161     C      0.290580000000     0.404340000000     0.763090000000     0.0303921  
C162     C      0.235230000000     0.404340000000     0.768080000000     0.0303413  
C163     C      0.235230000000     0.371440000000     0.768080000000     0.0303505  
C164     C      0.290580000000     0.371440000000     0.763090000000     0.0304015  
C165     C      0.235230000000     0.121440000000     0.763070000000     0.0302048  
C166     C      0.290580000000     0.121440000000     0.768070000000     0.0302747  
C167     C      0.290580000000     0.154340000000     0.768070000000     0.0303765  
C168     C      0.235230000000     0.154340000000     0.763080000000     0.0302823  
C169     C      0.033260000000     0.281900000000     0.657090000000     0.0307809  
C170     C      0.492530000000     0.243910000000     0.657090000000     0.032394   
C171     C      0.493690000000     0.242740000000     0.624040000000     0.0322644  
C172     C      0.032100000000     0.283070000000     0.624040000000     0.0312871  
C173     C      0.032100000000     0.242730000000     0.907100000000     0.0320257  
C174     C      0.493700000000     0.283070000000     0.907100000000     0.0331102  
C175     C      0.492530000000     0.281890000000     0.874050000000     0.0331302  
C176     C      0.033260000000     0.243910000000     0.874050000000     0.0315087  
C177     C      0.033160000000     0.531990000000     0.657090000000     0.0307682  
C178     C      0.492620000000     0.993800000000     0.657090000000     0.0392634  
C179     C      0.493800000000     0.992620000000     0.624050000000     0.0382613  
C180     C      0.031990000000     0.533160000000     0.624050000000     0.0311959  
C181     C      0.033160000000     0.493800000000     0.874050000000     0.0313846  
C182     C      0.492620000000     0.031990000000     0.874050000000     0.0319729  
C183     C      0.493790000000     0.033160000000     0.907090000000     0.0314734  
C184     C      0.031980000000     0.492620000000     0.907090000000     0.0320631  
C185     C      0.040680000000     0.404350000000     0.765460000000     0.0290836  
C186     C      0.485100000000     0.404350000000     0.765690000000     0.0304325  
C187     C      0.485100000000     0.371450000000     0.765470000000     0.0304509  
C188     C      0.040680000000     0.371450000000     0.765670000000     0.0291189  
C189     C      0.040680000000     0.121450000000     0.765680000000     0.0289849  
C190     C      0.485100000000     0.121450000000     0.765460000000     0.0303185  
C191     C      0.485100000000     0.154350000000     0.765670000000     0.0303998  
C192     C      0.040680000000     0.154350000000     0.765470000000     0.029048   
C193     C      0.012890000000     0.012900000000     0.325490000000     0.466128   
C194     C      0.012890000000     0.012900000000     0.205660000000     0.466344   
C195     C      0.512890000000     0.953120000000     0.265570000000     0.474476   
C196     C      0.512890000000     0.572680000000     0.265570000000     0.475663   
C197     C      0.512890000000     0.762900000000     0.325490000000     0.477837   
C198     C      0.512890000000     0.762910000000     0.205650000000     0.477845   
C199     C      0.012890000000     0.822680000000     0.265570000000     0.465725   
C200     C      0.012890000000     0.703120000000     0.265570000000     0.465627   
C201     C      0.262900000000     0.512890000000     0.325480000000     0.477886   
C202     C      0.262900000000     0.512890000000     0.205670000000     0.477807   
C203     C      0.262910000000     0.572660000000     0.265570000000     0.475288   
C204     C      0.262910000000     0.953120000000     0.265580000000     0.474267   
C205     C      0.262910000000     0.762890000000     0.325480000000     0.477933   
C206     C      0.262910000000     0.762900000000     0.205670000000     0.477623   
C207     C      0.262910000000     0.703120000000     0.265580000000     0.475481   
C208     C      0.262910000000     0.822660000000     0.265580000000     0.475483   
C209     C      0.012890000000     0.012890000000     0.455660000000     0.466274   
C210     C      0.012890000000     0.012890000000     0.075490000000     0.465186   
C211     C      0.072670000000     0.512890000000     0.015570000000     0.473217   
C212     C      0.453110000000     0.512890000000     0.015570000000     0.473896   
C213     C      0.512900000000     0.762900000000     0.455660000000     0.477696   
C214     C      0.512900000000     0.762910000000     0.075480000000     0.476866   
C215     C      0.453130000000     0.762910000000     0.015570000000     0.473456   
C216     C      0.072670000000     0.762910000000     0.015570000000     0.472839   
C217     C      0.262890000000     0.012890000000     0.455660000000     0.467658   
C218     C      0.262890000000     0.012890000000     0.075490000000     0.46692    
C219     C      0.322670000000     0.512890000000     0.015580000000     0.473772   
C220     C      0.203110000000     0.512890000000     0.015580000000     0.473941   
C221     C      0.262900000000     0.762900000000     0.455670000000     0.477621   
C222     C      0.262900000000     0.762900000000     0.075490000000     0.476914   
C223     C      0.322670000000     0.762900000000     0.015580000000     0.473598   
C224     C      0.203130000000     0.762900000000     0.015580000000     0.473736   
C225     C      0.371450000000     0.790580000000     0.518070000000     0.0302013  
C226     C      0.371450000000     0.735230000000     0.013080000000     0.0293178  
C227     C      0.404350000000     0.735230000000     0.013070000000     0.0291926  
C228     C      0.404350000000     0.790580000000     0.518070000000     0.0302841  
C229     C      0.121450000000     0.735230000000     0.518070000000     0.0300458  
C230     C      0.121450000000     0.790580000000     0.013080000000     0.0292437  
C231     C      0.154350000000     0.790580000000     0.013080000000     0.0291962  
C232     C      0.154350000000     0.735230000000     0.518080000000     0.0301967  
C233     C      0.404350000000     0.985100000000     0.515460000000     0.0363802  
C234     C      0.404350000000     0.540680000000     0.015690000000     0.0293266  
C235     C      0.371440000000     0.540670000000     0.015480000000     0.0294587  
C236     C      0.371440000000     0.985100000000     0.515680000000     0.036375   
C237     C      0.121440000000     0.985100000000     0.015680000000     0.0352676  
C238     C      0.121440000000     0.540680000000     0.515460000000     0.0301019  
C239     C      0.154350000000     0.540670000000     0.515670000000     0.0303907  
C240     C      0.154350000000     0.985100000000     0.015470000000     0.0354226  
C241     C      0.283170000000     0.743800000000     0.157100000000     0.0324123  
C242     C      0.242640000000     0.782000000000     0.157100000000     0.0324062  
C243     C      0.243810000000     0.783170000000     0.124060000000     0.032327   
C244     C      0.282010000000     0.742640000000     0.124050000000     0.0323759  
C245     C      0.283170000000     0.781990000000     0.374060000000     0.0323551  
C246     C      0.242640000000     0.743800000000     0.374060000000     0.0324935  
C247     C      0.243800000000     0.742630000000     0.407100000000     0.0322642  
C248     C      0.282000000000     0.783160000000     0.407100000000     0.032441   
C249     C      0.281890000000     0.533250000000     0.124060000000     0.0324154  
C250     C      0.243910000000     0.992520000000     0.124060000000     0.0382488  
C251     C      0.242730000000     0.993690000000     0.157110000000     0.0394027  
C252     C      0.283070000000     0.532090000000     0.157100000000     0.0323452  
C253     C      0.281890000000     0.992530000000     0.407090000000     0.0384003  
C254     C      0.243910000000     0.533260000000     0.407090000000     0.0323848  
C255     C      0.242730000000     0.532100000000     0.374050000000     0.0323379  
C256     C      0.283070000000     0.993690000000     0.374050000000     0.0393117  
C257     C      0.290580000000     0.904340000000     0.263080000000     0.0305851  
C258     C      0.235230000000     0.904340000000     0.268080000000     0.0305157  
C259     C      0.235230000000     0.871440000000     0.268080000000     0.0304885  
C260     C      0.290580000000     0.871440000000     0.263080000000     0.0305551  
C261     C      0.235230000000     0.621440000000     0.263070000000     0.030191   
C262     C      0.290580000000     0.621440000000     0.268070000000     0.030234   
C263     C      0.290580000000     0.654340000000     0.268070000000     0.0302679  
C264     C      0.235230000000     0.654340000000     0.263070000000     0.0301877  
C265     C      0.033260000000     0.781900000000     0.157090000000     0.0308939  
C266     C      0.492530000000     0.743920000000     0.157080000000     0.0325284  
C267     C      0.493690000000     0.742740000000     0.124040000000     0.0322204  
C268     C      0.032100000000     0.783080000000     0.124040000000     0.031246   
C269     C      0.032100000000     0.742730000000     0.407100000000     0.0312502  
C270     C      0.493700000000     0.783070000000     0.407100000000     0.03238    
C271     C      0.492530000000     0.781890000000     0.374060000000     0.0324722  
C272     C      0.033260000000     0.743910000000     0.374050000000     0.0308606  
C273     C      0.033160000000     0.031990000000     0.157090000000     0.0297536  
C274     C      0.492620000000     0.493800000000     0.157090000000     0.0323491  
C275     C      0.493800000000     0.492620000000     0.124050000000     0.0323084  
C276     C      0.031990000000     0.033160000000     0.124050000000     0.029613   
C277     C      0.033160000000     0.993800000000     0.374050000000     0.037668   
C278     C      0.492620000000     0.531990000000     0.374050000000     0.0323974  
C279     C      0.493790000000     0.533160000000     0.407100000000     0.0323352  
C280     C      0.031980000000     0.992630000000     0.407090000000     0.0372999  
C281     C      0.040680000000     0.904360000000     0.265460000000     0.0293102  
C282     C      0.485100000000     0.904350000000     0.265680000000     0.0306204  
C283     C      0.485100000000     0.871450000000     0.265470000000     0.0305927  
C284     C      0.040680000000     0.871450000000     0.265670000000     0.0292416  
C285     C      0.040680000000     0.621450000000     0.265680000000     0.028934   
C286     C      0.485100000000     0.621450000000     0.265460000000     0.0302807  
C287     C      0.485100000000     0.654360000000     0.265670000000     0.0303383  
C288     C      0.040680000000     0.654360000000     0.265470000000     0.0289926  
C289     C      0.012890000000     0.012900000000     0.825490000000     0.466355   
C290     C      0.012890000000     0.012900000000     0.705660000000     0.466324   
C291     C      0.512890000000     0.953120000000     0.765570000000     0.474523   
C292     C      0.512890000000     0.572680000000     0.765570000000     0.475712   
C293     C      0.512890000000     0.762900000000     0.825490000000     0.478024   
C294     C      0.512890000000     0.762910000000     0.705650000000     0.477799   
C295     C      0.012890000000     0.822680000000     0.765570000000     0.465807   
C296     C      0.012890000000     0.703120000000     0.765570000000     0.465709   
C297     C      0.262900000000     0.512890000000     0.825480000000     0.47807    
C298     C      0.262900000000     0.512890000000     0.705670000000     0.47776    
C299     C      0.262910000000     0.572660000000     0.765570000000     0.475369   
C300     C      0.262910000000     0.953120000000     0.765580000000     0.474315   
C301     C      0.262910000000     0.762890000000     0.825490000000     0.478044   
C302     C      0.262910000000     0.762900000000     0.705670000000     0.477573   
C303     C      0.262910000000     0.703120000000     0.765570000000     0.475529   
C304     C      0.262910000000     0.822660000000     0.765580000000     0.475531   
C305     C      0.012890000000     0.012890000000     0.955660000000     0.465107   
C306     C      0.012890000000     0.012890000000     0.575490000000     0.466012   
C307     C      0.072670000000     0.512890000000     0.515570000000     0.474974   
C308     C      0.453110000000     0.512890000000     0.515570000000     0.475653   
C309     C      0.512900000000     0.762900000000     0.955660000000     0.476503   
C310     C      0.512900000000     0.762910000000     0.575470000000     0.477798   
C311     C      0.453130000000     0.762910000000     0.515570000000     0.475211   
C312     C      0.072670000000     0.762910000000     0.515570000000     0.474593   
C313     C      0.262890000000     0.012890000000     0.955660000000     0.466451   
C314     C      0.262890000000     0.012890000000     0.575490000000     0.467704   
C315     C      0.322670000000     0.512890000000     0.515580000000     0.475554   
C316     C      0.203110000000     0.512890000000     0.515570000000     0.475703   
C317     C      0.262900000000     0.762900000000     0.955670000000     0.476387   
C318     C      0.262900000000     0.762900000000     0.575480000000     0.477838   
C319     C      0.322670000000     0.762900000000     0.515570000000     0.475339   
C320     C      0.203130000000     0.762900000000     0.515580000000     0.475477   
C321     C      0.371450000000     0.790580000000     0.018070000000     0.0292842  
C322     C      0.371450000000     0.735230000000     0.513080000000     0.0302626  
C323     C      0.404350000000     0.735230000000     0.513070000000     0.0301427  
C324     C      0.404350000000     0.790580000000     0.018070000000     0.0293683  
C325     C      0.121450000000     0.735230000000     0.018070000000     0.0291284  
C326     C      0.121450000000     0.790580000000     0.513080000000     0.0301906  
C327     C      0.154350000000     0.790580000000     0.513080000000     0.0301442  
C328     C      0.154350000000     0.735230000000     0.018080000000     0.0292834  
C329     C      0.404350000000     0.985100000000     0.015460000000     0.0354342  
C330     C      0.404350000000     0.540680000000     0.515690000000     0.0302587  
C331     C      0.371440000000     0.540670000000     0.515480000000     0.0303883  
C332     C      0.371440000000     0.985100000000     0.015680000000     0.0354254  
C333     C      0.121440000000     0.985100000000     0.515680000000     0.0362114  
C334     C      0.121440000000     0.540680000000     0.015460000000     0.0291688  
C335     C      0.154350000000     0.540670000000     0.015670000000     0.0294536  
C336     C      0.154350000000     0.985100000000     0.515470000000     0.0363636  
C337     C      0.283170000000     0.743800000000     0.657100000000     0.0323473  
C338     C      0.242640000000     0.782000000000     0.657100000000     0.0323414  
C339     C      0.243810000000     0.783170000000     0.624060000000     0.0323306  
C340     C      0.282010000000     0.742640000000     0.624050000000     0.0323794  
C341     C      0.283170000000     0.781990000000     0.874060000000     0.0330202  
C342     C      0.242640000000     0.743800000000     0.874060000000     0.033155   
C343     C      0.243800000000     0.742630000000     0.907100000000     0.033045   
C344     C      0.282000000000     0.783160000000     0.907100000000     0.0332132  
C345     C      0.281890000000     0.533250000000     0.624060000000     0.0324353  
C346     C      0.243910000000     0.992520000000     0.624060000000     0.0382769  
C347     C      0.242730000000     0.993690000000     0.657100000000     0.0392977  
C348     C      0.283070000000     0.532090000000     0.657100000000     0.0322733  
C349     C      0.281890000000     0.992530000000     0.907090000000     0.0391454  
C350     C      0.243910000000     0.533260000000     0.907090000000     0.0331575  
C351     C      0.242730000000     0.532100000000     0.874050000000     0.0329853  
C352     C      0.283070000000     0.993690000000     0.874050000000     0.0399467  
C353     C      0.290580000000     0.904340000000     0.763090000000     0.0306885  
C354     C      0.235230000000     0.904340000000     0.768080000000     0.0306377  
C355     C      0.235230000000     0.871440000000     0.768080000000     0.0306106  
C356     C      0.290580000000     0.871440000000     0.763090000000     0.0306614  
C357     C      0.235230000000     0.621440000000     0.763070000000     0.0302871  
C358     C      0.290580000000     0.621440000000     0.768070000000     0.0303572  
C359     C      0.290580000000     0.654340000000     0.768070000000     0.0303916  
C360     C      0.235230000000     0.654340000000     0.763080000000     0.0302976  
C361     C      0.033260000000     0.781900000000     0.657090000000     0.0308402  
C362     C      0.492530000000     0.743920000000     0.657090000000     0.0324969  
C363     C      0.493690000000     0.742740000000     0.624040000000     0.0322183  
C364     C      0.032100000000     0.783080000000     0.624040000000     0.0312415  
C365     C      0.032100000000     0.742730000000     0.907100000000     0.0320256  
C366     C      0.493700000000     0.783070000000     0.907100000000     0.0331473  
C367     C      0.492530000000     0.781890000000     0.874050000000     0.0331534  
C368     C      0.033260000000     0.743910000000     0.874050000000     0.0315198  
C369     C      0.033160000000     0.031990000000     0.657090000000     0.0296843  
C370     C      0.492620000000     0.493800000000     0.657090000000     0.0322784  
C371     C      0.493800000000     0.492620000000     0.624050000000     0.0323277  
C372     C      0.031990000000     0.033160000000     0.624050000000     0.0296312  
C373     C      0.033160000000     0.993800000000     0.874050000000     0.0383089  
C374     C      0.492620000000     0.531990000000     0.874050000000     0.0330453  
C375     C      0.493790000000     0.533160000000     0.907090000000     0.0330693  
C376     C      0.031980000000     0.992630000000     0.907090000000     0.0380456  
C377     C      0.040680000000     0.904360000000     0.765460000000     0.0294232  
C378     C      0.485100000000     0.904350000000     0.765690000000     0.0307363  
C379     C      0.485100000000     0.871450000000     0.765470000000     0.0306995  
C380     C      0.040680000000     0.871450000000     0.765670000000     0.0293639  
C381     C      0.040680000000     0.621450000000     0.765680000000     0.0290543  
C382     C      0.485100000000     0.621450000000     0.765460000000     0.0303918  
C383     C      0.485100000000     0.654360000000     0.765670000000     0.0304562  
C384     C      0.040680000000     0.654360000000     0.765470000000     0.0291039  
C385     C      0.512890000000     0.512900000000     0.325490000000     0.477692   
C386     C      0.512890000000     0.512900000000     0.205660000000     0.477912   
C387     C      0.012890000000     0.453120000000     0.265570000000     0.465571   
C388     C      0.012890000000     0.072680000000     0.265570000000     0.464871   
C389     C      0.012890000000     0.262900000000     0.325490000000     0.467643   
C390     C      0.012890000000     0.262900000000     0.205650000000     0.467683   
C391     C      0.512890000000     0.322680000000     0.265570000000     0.47586    
C392     C      0.512890000000     0.203120000000     0.265570000000     0.475709   
C393     C      0.762910000000     0.012890000000     0.325480000000     0.476455   
C394     C      0.762910000000     0.012890000000     0.205670000000     0.476371   
C395     C      0.762910000000     0.072660000000     0.265570000000     0.474558   
C396     C      0.762910000000     0.453120000000     0.265580000000     0.475445   
C397     C      0.762910000000     0.262890000000     0.325480000000     0.477586   
C398     C      0.762910000000     0.262890000000     0.205670000000     0.477597   
C399     C      0.762910000000     0.203120000000     0.265580000000     0.475464   
C400     C      0.762910000000     0.322660000000     0.265580000000     0.475393   
C401     C      0.512890000000     0.512890000000     0.455660000000     0.477892   
C402     C      0.512900000000     0.512890000000     0.075490000000     0.476769   
C403     C      0.572670000000     0.012890000000     0.015570000000     0.46347    
C404     C      0.953110000000     0.012890000000     0.015570000000     0.462306   
C405     C      0.012900000000     0.262900000000     0.455660000000     0.476265   
C406     C      0.012900000000     0.262910000000     0.075480000000     0.475353   
C407     C      0.953130000000     0.262900000000     0.015570000000     0.472506   
C408     C      0.572670000000     0.262900000000     0.015570000000     0.473593   
C409     C      0.762890000000     0.512890000000     0.455660000000     0.477894   
C410     C      0.762890000000     0.512890000000     0.075490000000     0.477132   
C411     C      0.822670000000     0.012890000000     0.015580000000     0.46407    
C412     C      0.703110000000     0.012890000000     0.015580000000     0.463847   
C413     C      0.762900000000     0.262900000000     0.455670000000     0.477684   
C414     C      0.762900000000     0.262900000000     0.075490000000     0.476661   
C415     C      0.822670000000     0.262900000000     0.015580000000     0.473724   
C416     C      0.703130000000     0.262900000000     0.015580000000     0.473784   
C417     C      0.871450000000     0.290580000000     0.518070000000     0.0304699  
C418     C      0.871450000000     0.235230000000     0.013080000000     0.0295649  
C419     C      0.904350000000     0.235230000000     0.013070000000     0.0295753  
C420     C      0.904350000000     0.290580000000     0.518070000000     0.0304962  
C421     C      0.621450000000     0.235230000000     0.518070000000     0.0302029  
C422     C      0.621450000000     0.290580000000     0.013080000000     0.0292277  
C423     C      0.654360000000     0.290580000000     0.013080000000     0.0292558  
C424     C      0.654350000000     0.235230000000     0.518080000000     0.0301967  
C425     C      0.904350000000     0.485100000000     0.515460000000     0.0306201  
C426     C      0.904350000000     0.040680000000     0.015690000000     0.0283428  
C427     C      0.871440000000     0.040680000000     0.015480000000     0.0283108  
C428     C      0.871440000000     0.485100000000     0.515680000000     0.0305567  
C429     C      0.621440000000     0.485100000000     0.015680000000     0.0293094  
C430     C      0.621440000000     0.040680000000     0.515460000000     0.0288912  
C431     C      0.654350000000     0.040680000000     0.515670000000     0.0289707  
C432     C      0.654350000000     0.485100000000     0.015470000000     0.0293771  
C433     C      0.783170000000     0.243800000000     0.157100000000     0.0324283  
C434     C      0.742640000000     0.282000000000     0.157100000000     0.0323988  
C435     C      0.743810000000     0.283170000000     0.124060000000     0.0322868  
C436     C      0.782010000000     0.242640000000     0.124050000000     0.0323916  
C437     C      0.783170000000     0.281990000000     0.374060000000     0.0324011  
C438     C      0.742640000000     0.243790000000     0.374060000000     0.0323226  
C439     C      0.743800000000     0.242630000000     0.407100000000     0.0323614  
C440     C      0.782000000000     0.283160000000     0.407100000000     0.0324242  
C441     C      0.781890000000     0.033250000000     0.124060000000     0.0308803  
C442     C      0.743910000000     0.492520000000     0.124060000000     0.0323323  
C443     C      0.742730000000     0.493690000000     0.157110000000     0.0324289  
C444     C      0.783070000000     0.032090000000     0.157100000000     0.0312712  
C445     C      0.781890000000     0.492530000000     0.407090000000     0.0325538  
C446     C      0.743910000000     0.033260000000     0.407090000000     0.0307673  
C447     C      0.742740000000     0.032090000000     0.374050000000     0.0313608  
C448     C      0.783070000000     0.493690000000     0.374050000000     0.0322652  
C449     C      0.790580000000     0.404340000000     0.263080000000     0.0302935  
C450     C      0.735230000000     0.404340000000     0.268080000000     0.0302087  
C451     C      0.735230000000     0.371440000000     0.268080000000     0.0302175  
C452     C      0.790580000000     0.371440000000     0.263080000000     0.0302983  
C453     C      0.735230000000     0.121440000000     0.263070000000     0.0300999  
C454     C      0.790580000000     0.121440000000     0.268070000000     0.0301848  
C455     C      0.790580000000     0.154340000000     0.268070000000     0.0302445  
C456     C      0.735230000000     0.154340000000     0.263070000000     0.0301609  
C457     C      0.533260000000     0.281900000000     0.157090000000     0.0324154  
C458     C      0.992530000000     0.243910000000     0.157080000000     0.0383754  
C459     C      0.993690000000     0.242740000000     0.124040000000     0.0392571  
C460     C      0.532100000000     0.283070000000     0.124040000000     0.0323778  
C461     C      0.532100000000     0.242730000000     0.407100000000     0.0323368  
C462     C      0.993700000000     0.283070000000     0.407100000000     0.0393355  
C463     C      0.992530000000     0.281890000000     0.374060000000     0.0383937  
C464     C      0.533260000000     0.243910000000     0.374050000000     0.0324255  
C465     C      0.533160000000     0.531990000000     0.157090000000     0.0323978  
C466     C      0.992620000000     0.993800000000     0.157090000000     0.045179   
C467     C      0.993800000000     0.992630000000     0.124050000000     0.0453095  
C468     C      0.531990000000     0.533160000000     0.124050000000     0.032307   
C469     C      0.533160000000     0.493800000000     0.374050000000     0.0323118  
C470     C      0.992620000000     0.031990000000     0.374050000000     0.0372546  
C471     C      0.993790000000     0.033160000000     0.407100000000     0.0377309  
C472     C      0.531980000000     0.492620000000     0.407090000000     0.0323849  
C473     C      0.540680000000     0.404350000000     0.265460000000     0.0303049  
C474     C      0.985100000000     0.404350000000     0.265680000000     0.0363951  
C475     C      0.985100000000     0.371450000000     0.265470000000     0.036423   
C476     C      0.540680000000     0.371450000000     0.265670000000     0.0303307  
C477     C      0.540680000000     0.121450000000     0.265680000000     0.0301966  
C478     C      0.985100000000     0.121450000000     0.265460000000     0.036281   
C479     C      0.985100000000     0.154350000000     0.265670000000     0.0363559  
C480     C      0.540680000000     0.154350000000     0.265470000000     0.0302692  
C481     C      0.512890000000     0.512900000000     0.825490000000     0.477835   
C482     C      0.512890000000     0.512900000000     0.705660000000     0.477863   
C483     C      0.012890000000     0.453120000000     0.765570000000     0.465654   
C484     C      0.012890000000     0.072680000000     0.765570000000     0.464954   
C485     C      0.012890000000     0.262900000000     0.825490000000     0.467874   
C486     C      0.012890000000     0.262900000000     0.705650000000     0.467667   
C487     C      0.512890000000     0.322680000000     0.765570000000     0.475906   
C488     C      0.512890000000     0.203120000000     0.765570000000     0.475756   
C489     C      0.762910000000     0.012890000000     0.825480000000     0.476637   
C490     C      0.762910000000     0.012890000000     0.705670000000     0.476323   
C491     C      0.762910000000     0.072660000000     0.765570000000     0.474639   
C492     C      0.762910000000     0.453120000000     0.765580000000     0.475493   
C493     C      0.762910000000     0.262890000000     0.825490000000     0.477697   
C494     C      0.762910000000     0.262890000000     0.705670000000     0.477547   
C495     C      0.762910000000     0.203120000000     0.765570000000     0.475512   
C496     C      0.762910000000     0.322660000000     0.765580000000     0.475441   
C497     C      0.512890000000     0.512890000000     0.955660000000     0.476687   
C498     C      0.512900000000     0.512890000000     0.575490000000     0.477621   
C499     C      0.572670000000     0.012890000000     0.515570000000     0.465189   
C500     C      0.953110000000     0.012890000000     0.515570000000     0.464025   
C501     C      0.012900000000     0.262900000000     0.955660000000     0.475072   
C502     C      0.012900000000     0.262910000000     0.575470000000     0.476285   
C503     C      0.953130000000     0.262900000000     0.515570000000     0.474259   
C504     C      0.572670000000     0.262900000000     0.515570000000     0.475346   
C505     C      0.762890000000     0.512890000000     0.955660000000     0.476655   
C506     C      0.762890000000     0.512890000000     0.575490000000     0.47794    
C507     C      0.822670000000     0.012890000000     0.515580000000     0.465811   
C508     C      0.703110000000     0.012890000000     0.515570000000     0.465569   
C509     C      0.762900000000     0.262900000000     0.955670000000     0.476451   
C510     C      0.762900000000     0.262900000000     0.575480000000     0.477581   
C511     C      0.822670000000     0.262900000000     0.515570000000     0.475461   
C512     C      0.703130000000     0.262900000000     0.515580000000     0.475522   
C513     C      0.871450000000     0.290580000000     0.018070000000     0.0295559  
C514     C      0.871450000000     0.235230000000     0.513080000000     0.0305062  
C515     C      0.904350000000     0.235230000000     0.513070000000     0.0305218  
C516     C      0.904350000000     0.290580000000     0.018070000000     0.0295833  
C517     C      0.621450000000     0.235230000000     0.018070000000     0.0292864  
C518     C      0.621450000000     0.290580000000     0.513080000000     0.0301748  
C519     C      0.654360000000     0.290580000000     0.513080000000     0.0302029  
C520     C      0.654350000000     0.235230000000     0.018080000000     0.0292849  
C521     C      0.904350000000     0.485100000000     0.015460000000     0.029689   
C522     C      0.904350000000     0.040680000000     0.515690000000     0.029265   
C523     C      0.871440000000     0.040680000000     0.515480000000     0.0292306  
C524     C      0.871440000000     0.485100000000     0.015680000000     0.0296219  
C525     C      0.621440000000     0.485100000000     0.515680000000     0.0302414  
C526     C      0.621440000000     0.040680000000     0.015460000000     0.0279649  
C527     C      0.654350000000     0.040680000000     0.015670000000     0.0280412  
C528     C      0.654350000000     0.485100000000     0.515470000000     0.0303053  
C529     C      0.783170000000     0.243800000000     0.657100000000     0.0323634  
C530     C      0.742640000000     0.282000000000     0.657100000000     0.0323342  
C531     C      0.743810000000     0.283170000000     0.624060000000     0.0322902  
C532     C      0.782010000000     0.242640000000     0.624050000000     0.0323949  
C533     C      0.783170000000     0.281990000000     0.874060000000     0.0330652  
C534     C      0.742640000000     0.243790000000     0.874060000000     0.0329896  
C535     C      0.743800000000     0.242630000000     0.907100000000     0.0331249  
C536     C      0.782000000000     0.283160000000     0.907100000000     0.0331936  
C537     C      0.781890000000     0.033250000000     0.624060000000     0.0308975  
C538     C      0.743910000000     0.492520000000     0.624060000000     0.0323532  
C539     C      0.742730000000     0.493690000000     0.657100000000     0.0323275  
C540     C      0.783070000000     0.032090000000     0.657100000000     0.0311968  
C541     C      0.781890000000     0.492530000000     0.907090000000     0.0333183  
C542     C      0.743910000000     0.033260000000     0.907090000000     0.0315386  
C543     C      0.742740000000     0.032090000000     0.874050000000     0.032007   
C544     C      0.783070000000     0.493690000000     0.874050000000     0.0329102  
C545     C      0.790580000000     0.404340000000     0.763090000000     0.030397   
C546     C      0.735230000000     0.404340000000     0.768080000000     0.030331   
C547     C      0.735230000000     0.371440000000     0.768080000000     0.0303398  
C548     C      0.790580000000     0.371440000000     0.763090000000     0.0304046  
C549     C      0.735230000000     0.121440000000     0.763070000000     0.0301957  
C550     C      0.790580000000     0.121440000000     0.768070000000     0.0303074  
C551     C      0.790580000000     0.154340000000     0.768070000000     0.0303675  
C552     C      0.735230000000     0.154340000000     0.763080000000     0.0302705  
C553     C      0.533260000000     0.281900000000     0.657090000000     0.0323536  
C554     C      0.992530000000     0.243910000000     0.657090000000     0.0383297  
C555     C      0.993690000000     0.242740000000     0.624040000000     0.0392397  
C556     C      0.532100000000     0.283070000000     0.624040000000     0.032379   
C557     C      0.532100000000     0.242730000000     0.907100000000     0.0331091  
C558     C      0.993700000000     0.283070000000     0.907100000000     0.0400508  
C559     C      0.992530000000     0.281890000000     0.874050000000     0.0390464  
C560     C      0.533260000000     0.243910000000     0.874050000000     0.0330766  
C561     C      0.533160000000     0.531990000000     0.657090000000     0.0323272  
C562     C      0.992620000000     0.993800000000     0.657090000000     0.0450903  
C563     C      0.993800000000     0.992630000000     0.624050000000     0.0453206  
C564     C      0.531990000000     0.533160000000     0.624050000000     0.0323264  
C565     C      0.533160000000     0.493800000000     0.874050000000     0.0329546  
C566     C      0.992620000000     0.031990000000     0.874050000000     0.0378666  
C567     C      0.993790000000     0.033160000000     0.907090000000     0.0384203  
C568     C      0.531980000000     0.492620000000     0.907090000000     0.0331493  
C569     C      0.540680000000     0.404350000000     0.765460000000     0.0304135  
C570     C      0.985100000000     0.404350000000     0.765690000000     0.0364864  
C571     C      0.985100000000     0.371450000000     0.765470000000     0.0365045  
C572     C      0.540680000000     0.371450000000     0.765670000000     0.0304489  
C573     C      0.540680000000     0.121450000000     0.765680000000     0.0303126  
C574     C      0.985100000000     0.121450000000     0.765460000000     0.0363649  
C575     C      0.985100000000     0.154350000000     0.765670000000     0.0364487  
C576     C      0.540680000000     0.154350000000     0.765470000000     0.0303762  
C577     C      0.512890000000     0.012900000000     0.325490000000     0.476273   
C578     C      0.512890000000     0.012900000000     0.205660000000     0.476494   
C579     C      0.012890000000     0.953120000000     0.265570000000     0.464406   
C580     C      0.012890000000     0.572680000000     0.265570000000     0.46556    
C581     C      0.012890000000     0.762900000000     0.325490000000     0.467671   
C582     C      0.012890000000     0.762910000000     0.205650000000     0.467674   
C583     C      0.512890000000     0.822680000000     0.265570000000     0.475818   
C584     C      0.512890000000     0.703120000000     0.265570000000     0.475726   
C585     C      0.762910000000     0.512890000000     0.325480000000     0.477864   
C586     C      0.762910000000     0.512890000000     0.205670000000     0.477785   
C587     C      0.762910000000     0.572660000000     0.265570000000     0.475267   
C588     C      0.762910000000     0.953120000000     0.265580000000     0.474245   
C589     C      0.762910000000     0.762890000000     0.325480000000     0.477593   
C590     C      0.762910000000     0.762900000000     0.205670000000     0.477599   
C591     C      0.762910000000     0.703120000000     0.265580000000     0.475452   
C592     C      0.762910000000     0.822660000000     0.265580000000     0.475454   
C593     C      0.512890000000     0.012890000000     0.455660000000     0.467672   
C594     C      0.512900000000     0.012890000000     0.075490000000     0.466582   
C595     C      0.572670000000     0.512890000000     0.015570000000     0.473876   
C596     C      0.953110000000     0.512890000000     0.015570000000     0.472677   
C597     C      0.012900000000     0.762900000000     0.455660000000     0.476244   
C598     C      0.012900000000     0.762910000000     0.075480000000     0.475328   
C599     C      0.953130000000     0.762910000000     0.015570000000     0.472486   
C600     C      0.572670000000     0.762910000000     0.015570000000     0.473572   
C601     C      0.762900000000     0.012890000000     0.455660000000     0.467702   
C602     C      0.762890000000     0.012890000000     0.075490000000     0.466928   
C603     C      0.822670000000     0.512890000000     0.015580000000     0.473846   
C604     C      0.703110000000     0.512890000000     0.015580000000     0.473925   
C605     C      0.762900000000     0.762900000000     0.455670000000     0.477624   
C606     C      0.762900000000     0.762900000000     0.075490000000     0.476919   
C607     C      0.822670000000     0.762900000000     0.015580000000     0.473666   
C608     C      0.703130000000     0.762900000000     0.015580000000     0.473725   
C609     C      0.871450000000     0.790580000000     0.518070000000     0.0304596  
C610     C      0.871450000000     0.735230000000     0.013080000000     0.0295795  
C611     C      0.904350000000     0.735230000000     0.013070000000     0.0294978  
C612     C      0.904350000000     0.790580000000     0.518070000000     0.0305848  
C613     C      0.621450000000     0.735230000000     0.518070000000     0.0301263  
C614     C      0.621450000000     0.790580000000     0.013080000000     0.0293171  
C615     C      0.654360000000     0.790580000000     0.013080000000     0.0292459  
C616     C      0.654350000000     0.735230000000     0.518080000000     0.030212   
C617     C      0.904350000000     0.985100000000     0.515460000000     0.0366576  
C618     C      0.904350000000     0.540680000000     0.015690000000     0.0296258  
C619     C      0.871440000000     0.540670000000     0.015480000000     0.0297261  
C620     C      0.871440000000     0.985100000000     0.515680000000     0.0366244  
C621     C      0.621440000000     0.985100000000     0.015680000000     0.0353573  
C622     C      0.621440000000     0.540680000000     0.515460000000     0.0301774  
C623     C      0.654350000000     0.540670000000     0.515670000000     0.0304035  
C624     C      0.654350000000     0.985100000000     0.015470000000     0.0354376  
C625     C      0.783170000000     0.743800000000     0.157100000000     0.0324479  
C626     C      0.742640000000     0.782000000000     0.157100000000     0.03241    
C627     C      0.743810000000     0.783170000000     0.124060000000     0.032339   
C628     C      0.782010000000     0.742640000000     0.124050000000     0.0324055  
C629     C      0.783170000000     0.781990000000     0.374060000000     0.0324377  
C630     C      0.742640000000     0.743800000000     0.374060000000     0.0324234  
C631     C      0.743800000000     0.742630000000     0.407100000000     0.0323076  
C632     C      0.782000000000     0.783160000000     0.407100000000     0.0324523  
C633     C      0.781890000000     0.533250000000     0.124060000000     0.0324601  
C634     C      0.743910000000     0.992520000000     0.124060000000     0.0382506  
C635     C      0.742730000000     0.993690000000     0.157110000000     0.0394095  
C636     C      0.783070000000     0.532090000000     0.157100000000     0.0323516  
C637     C      0.781890000000     0.992530000000     0.407090000000     0.0384195  
C638     C      0.743910000000     0.533260000000     0.407090000000     0.0323927  
C639     C      0.742730000000     0.532100000000     0.374050000000     0.0323494  
C640     C      0.783070000000     0.993690000000     0.374050000000     0.0393216  
C641     C      0.790580000000     0.904340000000     0.263080000000     0.0305898  
C642     C      0.735230000000     0.904340000000     0.268080000000     0.0305056  
C643     C      0.735230000000     0.871440000000     0.268080000000     0.0304781  
C644     C      0.790580000000     0.871440000000     0.263080000000     0.0305583  
C645     C      0.735230000000     0.621440000000     0.263070000000     0.0301823  
C646     C      0.790580000000     0.621440000000     0.268070000000     0.0302675  
C647     C      0.790580000000     0.654340000000     0.268070000000     0.0302596  
C648     C      0.735230000000     0.654340000000     0.263070000000     0.0301761  
C649     C      0.533260000000     0.781900000000     0.157090000000     0.0324316  
C650     C      0.992530000000     0.743910000000     0.157080000000     0.0384     
C651     C      0.993690000000     0.742740000000     0.124040000000     0.039244   
C652     C      0.532100000000     0.783070000000     0.124040000000     0.0324101  
C653     C      0.532100000000     0.742740000000     0.407100000000     0.0324144  
C654     C      0.993700000000     0.783070000000     0.407100000000     0.0393622  
C655     C      0.992530000000     0.781890000000     0.374060000000     0.0384182  
C656     C      0.533260000000     0.743910000000     0.374050000000     0.0323948  
C657     C      0.533160000000     0.031990000000     0.157090000000     0.031315   
C658     C      0.992620000000     0.493800000000     0.157090000000     0.0382865  
C659     C      0.993800000000     0.492620000000     0.124050000000     0.0393424  
C660     C      0.531990000000     0.033160000000     0.124050000000     0.0307325  
C661     C      0.533160000000     0.993800000000     0.374050000000     0.0393037  
C662     C      0.992620000000     0.531990000000     0.374050000000     0.038347   
C663     C      0.993790000000     0.533160000000     0.407100000000     0.0393327  
C664     C      0.531980000000     0.992620000000     0.407090000000     0.0383187  
C665     C      0.540680000000     0.904360000000     0.265460000000     0.0306417  
C666     C      0.985100000000     0.904350000000     0.265680000000     0.0366794  
C667     C      0.985100000000     0.871450000000     0.265470000000     0.0366606  
C668     C      0.540680000000     0.871450000000     0.265670000000     0.0305751  
C669     C      0.540680000000     0.621450000000     0.265680000000     0.0302684  
C670     C      0.985100000000     0.621450000000     0.265460000000     0.0363618  
C671     C      0.985100000000     0.654360000000     0.265670000000     0.0364173  
C672     C      0.540680000000     0.654360000000     0.265470000000     0.030325   
C673     C      0.512890000000     0.012900000000     0.825490000000     0.476457   
C674     C      0.512890000000     0.012900000000     0.705660000000     0.476445   
C675     C      0.012890000000     0.953120000000     0.765570000000     0.464488   
C676     C      0.012890000000     0.572680000000     0.765570000000     0.465643   
C677     C      0.012890000000     0.762900000000     0.825490000000     0.467902   
C678     C      0.012890000000     0.762910000000     0.705650000000     0.467662   
C679     C      0.512890000000     0.822680000000     0.765570000000     0.475865   
C680     C      0.512890000000     0.703120000000     0.765570000000     0.475773   
C681     C      0.762910000000     0.512890000000     0.825480000000     0.478048   
C682     C      0.762910000000     0.512890000000     0.705670000000     0.477738   
C683     C      0.762910000000     0.572660000000     0.765570000000     0.475348   
C684     C      0.762910000000     0.953120000000     0.765580000000     0.474292   
C685     C      0.762910000000     0.762890000000     0.825490000000     0.477747   
C686     C      0.762910000000     0.762900000000     0.705670000000     0.477592   
C687     C      0.762910000000     0.703120000000     0.765570000000     0.475543   
C688     C      0.762910000000     0.822660000000     0.765580000000     0.475544   
C689     C      0.512890000000     0.012890000000     0.955660000000     0.466502   
C690     C      0.512900000000     0.012890000000     0.575490000000     0.467408   
C691     C      0.572670000000     0.512890000000     0.515570000000     0.475633   
C692     C      0.953110000000     0.512890000000     0.515570000000     0.474432   
C693     C      0.012900000000     0.762900000000     0.955660000000     0.475052   
C694     C      0.012900000000     0.762910000000     0.575470000000     0.476259   
C695     C      0.953130000000     0.762910000000     0.515570000000     0.474238   
C696     C      0.572670000000     0.762910000000     0.515570000000     0.475325   
C697     C      0.762900000000     0.012890000000     0.955660000000     0.466498   
C698     C      0.762890000000     0.012890000000     0.575490000000     0.46771    
C699     C      0.822670000000     0.512890000000     0.515580000000     0.475623   
C700     C      0.703110000000     0.512890000000     0.515570000000     0.475683   
C701     C      0.762900000000     0.762900000000     0.955670000000     0.476393   
C702     C      0.762900000000     0.762900000000     0.575480000000     0.477839   
C703     C      0.822670000000     0.762900000000     0.515570000000     0.475403   
C704     C      0.703130000000     0.762900000000     0.515580000000     0.475462   
C705     C      0.871450000000     0.790580000000     0.018070000000     0.0295456  
C706     C      0.871450000000     0.735230000000     0.513080000000     0.0305215  
C707     C      0.904350000000     0.735230000000     0.513070000000     0.0304451  
C708     C      0.904350000000     0.790580000000     0.018070000000     0.0296719  
C709     C      0.621450000000     0.735230000000     0.018070000000     0.0292087  
C710     C      0.621450000000     0.790580000000     0.513080000000     0.0302645  
C711     C      0.654360000000     0.790580000000     0.513080000000     0.0301933  
C712     C      0.654350000000     0.735230000000     0.018080000000     0.0292995  
C713     C      0.904350000000     0.985100000000     0.015460000000     0.0357144  
C714     C      0.904350000000     0.540680000000     0.515690000000     0.0305547  
C715     C      0.871440000000     0.540670000000     0.515480000000     0.0306529  
C716     C      0.871440000000     0.985100000000     0.015680000000     0.0356777  
C717     C      0.621440000000     0.985100000000     0.515680000000     0.0363012  
C718     C      0.621440000000     0.540680000000     0.015460000000     0.0292441  
C719     C      0.654350000000     0.540670000000     0.015670000000     0.0294671  
C720     C      0.654350000000     0.985100000000     0.515470000000     0.036378   
C721     C      0.783170000000     0.743800000000     0.657100000000     0.0323831  
C722     C      0.742640000000     0.782000000000     0.657100000000     0.0323466  
C723     C      0.743810000000     0.783170000000     0.624060000000     0.0323407  
C724     C      0.782010000000     0.742640000000     0.624050000000     0.0324069  
C725     C      0.783170000000     0.781990000000     0.874060000000     0.0331005  
C726     C      0.742640000000     0.743800000000     0.874060000000     0.0330843  
C727     C      0.743800000000     0.742630000000     0.907100000000     0.0330844  
C728     C      0.782000000000     0.783160000000     0.907100000000     0.0332199  
C729     C      0.781890000000     0.533250000000     0.624060000000     0.0324797  
C730     C      0.743910000000     0.992520000000     0.624060000000     0.0382783  
C731     C      0.742730000000     0.993690000000     0.657100000000     0.0393045  
C732     C      0.783070000000     0.532090000000     0.657100000000     0.0322797  
C733     C      0.781890000000     0.992530000000     0.907090000000     0.0391618  
C734     C      0.743910000000     0.533260000000     0.907090000000     0.033163   
C735     C      0.742730000000     0.532100000000     0.874050000000     0.032995   
C736     C      0.783070000000     0.993690000000     0.874050000000     0.039954   
C737     C      0.790580000000     0.904340000000     0.763090000000     0.0306904  
C738     C      0.735230000000     0.904340000000     0.768080000000     0.0306256  
C739     C      0.735230000000     0.871440000000     0.768080000000     0.0306017  
C740     C      0.790580000000     0.871440000000     0.763090000000     0.0306653  
C741     C      0.735230000000     0.621440000000     0.763070000000     0.0302765  
C742     C      0.790580000000     0.621440000000     0.768070000000     0.0303879  
C743     C      0.790580000000     0.654340000000     0.768070000000     0.0303838  
C744     C      0.735230000000     0.654340000000     0.763080000000     0.0302875  
C745     C      0.533260000000     0.781900000000     0.657090000000     0.0323697  
C746     C      0.992530000000     0.743920000000     0.657090000000     0.038435   
C747     C      0.993690000000     0.742740000000     0.624040000000     0.0391825  
C748     C      0.532100000000     0.783070000000     0.624040000000     0.0324112  
C749     C      0.532100000000     0.742740000000     0.907100000000     0.0331866  
C750     C      0.993700000000     0.783070000000     0.907100000000     0.0400764  
C751     C      0.992530000000     0.781890000000     0.874050000000     0.0390697  
C752     C      0.533260000000     0.743910000000     0.874050000000     0.0330456  
C753     C      0.533160000000     0.031990000000     0.657090000000     0.0312426  
C754     C      0.992620000000     0.493800000000     0.657090000000     0.038197   
C755     C      0.993800000000     0.492620000000     0.624050000000     0.0393463  
C756     C      0.531990000000     0.033160000000     0.624050000000     0.0307492  
C757     C      0.533160000000     0.993800000000     0.874050000000     0.0399368  
C758     C      0.992620000000     0.531990000000     0.874050000000     0.0389643  
C759     C      0.993790000000     0.533160000000     0.907090000000     0.0400074  
C760     C      0.531980000000     0.992620000000     0.907090000000     0.0390606  
C761     C      0.540680000000     0.904360000000     0.765460000000     0.0307504  
C762     C      0.985100000000     0.904350000000     0.765690000000     0.0367696  
C763     C      0.985100000000     0.871450000000     0.765470000000     0.0367412  
C764     C      0.540680000000     0.871450000000     0.765670000000     0.030693   
C765     C      0.540680000000     0.621450000000     0.765680000000     0.0303853  
C766     C      0.985100000000     0.621450000000     0.765460000000     0.0364452  
C767     C      0.985100000000     0.654360000000     0.765670000000     0.0365099  
C768     C      0.540680000000     0.654360000000     0.765470000000     0.0304322  
H1       H      0.359520000000     0.313080000000     0.520100000000     0.0335146  
H2       H      0.359520000000     0.212730000000     0.011050000000     0.0323338  
H3       H      0.416280000000     0.212730000000     0.011040000000     0.03232    
H4       H      0.416280000000     0.313080000000     0.520100000000     0.0334988  
H5       H      0.109520000000     0.212730000000     0.520100000000     0.0332012  
H6       H      0.109520000000     0.313080000000     0.011050000000     0.0321458  
H7       H      0.166280000000     0.313080000000     0.011050000000     0.0323231  
H8       H      0.166280000000     0.212730000000     0.520110000000     0.0333698  
H9       H      0.416280000000     0.462510000000     0.515440000000     0.0332878  
H10      H      0.416280000000     0.063270000000     0.015710000000     0.0323081  
H11      H      0.359510000000     0.063270000000     0.015470000000     0.0323607  
H12      H      0.359510000000     0.462510000000     0.515680000000     0.0333124  
H13      H      0.109510000000     0.462510000000     0.015700000000     0.0320284  
H14      H      0.109510000000     0.063270000000     0.515440000000     0.0331208  
H15      H      0.166280000000     0.063270000000     0.515680000000     0.0332457  
H16      H      0.166280000000     0.462510000000     0.015460000000     0.0322253  
H17      H      0.299280000000     0.228190000000     0.169420000000     0.0308068  
H18      H      0.226530000000     0.297610000000     0.169430000000     0.0308197  
H19      H      0.228200000000     0.299280000000     0.111740000000     0.0307834  
H20      H      0.297620000000     0.226530000000     0.111730000000     0.030764   
H21      H      0.299280000000     0.297600000000     0.361730000000     0.0308676  
H22      H      0.226530000000     0.228180000000     0.361730000000     0.0307661  
H23      H      0.228190000000     0.226520000000     0.419420000000     0.0307714  
H24      H      0.297610000000     0.299270000000     0.419420000000     0.0308268  
H25      H      0.297420000000     0.049440000000     0.111730000000     0.0305764  
H26      H      0.228380000000     0.476330000000     0.111740000000     0.0307151  
H27      H      0.226700000000     0.477990000000     0.169430000000     0.0308161  
H28      H      0.299110000000     0.047780000000     0.169430000000     0.0305541  
H29      H      0.297420000000     0.476330000000     0.419420000000     0.0307521  
H30      H      0.228380000000     0.049450000000     0.419420000000     0.0305732  
H31      H      0.226700000000     0.047790000000     0.361720000000     0.0305184  
H32      H      0.299110000000     0.478000000000     0.361720000000     0.0309046  
H33      H      0.313090000000     0.416270000000     0.261050000000     0.0335287  
H34      H      0.212730000000     0.416270000000     0.270110000000     0.0334971  
H35      H      0.212730000000     0.359510000000     0.270110000000     0.0335045  
H36      H      0.313090000000     0.359510000000     0.261060000000     0.0335373  
H37      H      0.212730000000     0.109510000000     0.261040000000     0.0332514  
H38      H      0.313080000000     0.109510000000     0.270100000000     0.0332959  
H39      H      0.313090000000     0.166270000000     0.270100000000     0.0334567  
H40      H      0.212730000000     0.166270000000     0.261050000000     0.033424   
H41      H      0.049450000000     0.297420000000     0.169410000000     0.0306095  
H42      H      0.476330000000     0.228390000000     0.169410000000     0.0307328  
H43      H      0.478000000000     0.226710000000     0.111710000000     0.030805   
H44      H      0.047790000000     0.299110000000     0.111720000000     0.0304993  
H45      H      0.047790000000     0.226700000000     0.419420000000     0.0305039  
H46      H      0.478010000000     0.299100000000     0.419430000000     0.0308648  
H47      H      0.476340000000     0.297420000000     0.361730000000     0.030779   
H48      H      0.049450000000     0.228380000000     0.361730000000     0.0305617  
H49      H      0.049280000000     0.547600000000     0.169420000000     0.0306858  
H50      H      0.476510000000     0.978200000000     0.169420000000     0.0315618  
H51      H      0.478190000000     0.976510000000     0.111720000000     0.0311303  
H52      H      0.047600000000     0.549270000000     0.111720000000     0.0305253  
H53      H      0.049270000000     0.478200000000     0.361720000000     0.0307295  
H54      H      0.476510000000     0.047600000000     0.361720000000     0.0305587  
H55      H      0.478190000000     0.049270000000     0.419420000000     0.0307253  
H56      H      0.047590000000     0.476510000000     0.419420000000     0.0305561  
H57      H      0.063270000000     0.416290000000     0.265440000000     0.0333805  
H58      H      0.462510000000     0.416290000000     0.265700000000     0.0333433  
H59      H      0.462510000000     0.359520000000     0.265460000000     0.0333443  
H60      H      0.063270000000     0.359520000000     0.265680000000     0.0333809  
H61      H      0.063270000000     0.109520000000     0.265700000000     0.0331343  
H62      H      0.462510000000     0.109520000000     0.265440000000     0.0330968  
H63      H      0.462510000000     0.166290000000     0.265670000000     0.0332634  
H64      H      0.063270000000     0.166290000000     0.265460000000     0.0333023  
H65      H      0.359520000000     0.313080000000     0.020100000000     0.0325902  
H66      H      0.359520000000     0.212730000000     0.511050000000     0.0334515  
H67      H      0.416280000000     0.212730000000     0.511040000000     0.03344    
H68      H      0.416280000000     0.313080000000     0.020100000000     0.0325775  
H69      H      0.109520000000     0.212730000000     0.020100000000     0.0322821  
H70      H      0.109520000000     0.313080000000     0.511050000000     0.033266   
H71      H      0.166280000000     0.313080000000     0.511050000000     0.0334405  
H72      H      0.166280000000     0.212730000000     0.020110000000     0.0324466  
H73      H      0.416280000000     0.462510000000     0.015440000000     0.0322794  
H74      H      0.416280000000     0.063270000000     0.515710000000     0.03334    
H75      H      0.359510000000     0.063270000000     0.515470000000     0.0333439  
H76      H      0.359510000000     0.462510000000     0.015680000000     0.0322546  
H77      H      0.109510000000     0.462510000000     0.515700000000     0.0330614  
H78      H      0.109510000000     0.063270000000     0.015440000000     0.0321156  
H79      H      0.166280000000     0.063270000000     0.015680000000     0.0321917  
H80      H      0.166280000000     0.462510000000     0.515460000000     0.0332107  
H81      H      0.299280000000     0.228190000000     0.669420000000     0.0307807  
H82      H      0.226530000000     0.297610000000     0.669430000000     0.0307958  
H83      H      0.228200000000     0.299280000000     0.611740000000     0.0307843  
H84      H      0.297620000000     0.226530000000     0.611730000000     0.0307679  
H85      H      0.299280000000     0.297600000000     0.861730000000     0.0314515  
H86      H      0.226530000000     0.228180000000     0.861730000000     0.0313518  
H87      H      0.228190000000     0.226520000000     0.919420000000     0.0325941  
H88      H      0.297610000000     0.299270000000     0.919420000000     0.032656   
H89      H      0.297420000000     0.049440000000     0.611730000000     0.0305675  
H90      H      0.228380000000     0.476330000000     0.611740000000     0.0307085  
H91      H      0.226700000000     0.477990000000     0.669430000000     0.0308086  
H92      H      0.299110000000     0.047780000000     0.669430000000     0.0305349  
H93      H      0.297420000000     0.476330000000     0.919420000000     0.0325842  
H94      H      0.228380000000     0.049450000000     0.919420000000     0.0324101  
H95      H      0.226700000000     0.047790000000     0.861720000000     0.031113   
H96      H      0.299110000000     0.478000000000     0.861730000000     0.0314935  
H97      H      0.313090000000     0.416270000000     0.761060000000     0.0336354  
H98      H      0.212730000000     0.416270000000     0.770110000000     0.0336729  
H99      H      0.212730000000     0.359510000000     0.770110000000     0.0336816  
H100     H      0.313090000000     0.359510000000     0.761060000000     0.0336417  
H101     H      0.212730000000     0.109510000000     0.761050000000     0.0333603  
H102     H      0.313080000000     0.109510000000     0.770100000000     0.0334703  
H103     H      0.313090000000     0.166270000000     0.770100000000     0.0336333  
H104     H      0.212730000000     0.166270000000     0.761050000000     0.0335276  
H105     H      0.049450000000     0.297420000000     0.669410000000     0.0305845  
H106     H      0.476330000000     0.228390000000     0.669410000000     0.0306932  
H107     H      0.478000000000     0.226710000000     0.611710000000     0.0308065  
H108     H      0.047790000000     0.299110000000     0.611720000000     0.0305     
H109     H      0.047790000000     0.226700000000     0.919420000000     0.0323366  
H110     H      0.478010000000     0.299100000000     0.919420000000     0.0326911  
H111     H      0.476340000000     0.297420000000     0.861730000000     0.0313579  
H112     H      0.049450000000     0.228380000000     0.861730000000     0.0311561  
H113     H      0.049280000000     0.547600000000     0.669420000000     0.030663   
H114     H      0.476510000000     0.978200000000     0.669420000000     0.0315385  
H115     H      0.478190000000     0.976510000000     0.611720000000     0.0311232  
H116     H      0.047600000000     0.549270000000     0.611720000000     0.0305191  
H117     H      0.049270000000     0.478200000000     0.861720000000     0.0313351  
H118     H      0.476510000000     0.047600000000     0.861730000000     0.0311557  
H119     H      0.478190000000     0.049270000000     0.919420000000     0.0325884  
H120     H      0.047590000000     0.476510000000     0.919420000000     0.0324108  
H121     H      0.063270000000     0.416290000000     0.765440000000     0.0335194  
H122     H      0.462510000000     0.416290000000     0.765700000000     0.0334808  
H123     H      0.462510000000     0.359520000000     0.765470000000     0.0334751  
H124     H      0.063270000000     0.359520000000     0.765680000000     0.0335275  
H125     H      0.063270000000     0.109520000000     0.765700000000     0.0332733  
H126     H      0.462510000000     0.109520000000     0.765440000000     0.0332356  
H127     H      0.462510000000     0.166290000000     0.765680000000     0.0334108  
H128     H      0.063270000000     0.166290000000     0.765460000000     0.0334337  
H129     H      0.359520000000     0.813080000000     0.520100000000     0.033648   
H130     H      0.359520000000     0.712730000000     0.011050000000     0.0323418  
H131     H      0.416280000000     0.712730000000     0.011040000000     0.0323444  
H132     H      0.416280000000     0.813080000000     0.520100000000     0.0336036  
H133     H      0.109520000000     0.712730000000     0.520100000000     0.0332274  
H134     H      0.109520000000     0.813080000000     0.011050000000     0.0322515  
H135     H      0.166280000000     0.813080000000     0.011050000000     0.032457   
H136     H      0.166280000000     0.712730000000     0.520110000000     0.0333793  
H137     H      0.416280000000     0.962510000000     0.515440000000     0.0329324  
H138     H      0.416280000000     0.563270000000     0.015710000000     0.0322383  
H139     H      0.359510000000     0.563270000000     0.015470000000     0.0322738  
H140     H      0.359510000000     0.962510000000     0.515680000000     0.0329435  
H141     H      0.109510000000     0.962510000000     0.015700000000     0.0316765  
H142     H      0.109510000000     0.563270000000     0.515440000000     0.033054   
H143     H      0.166280000000     0.563270000000     0.515680000000     0.0331487  
H144     H      0.166280000000     0.962510000000     0.015460000000     0.031865   
H145     H      0.299280000000     0.728190000000     0.169420000000     0.0308263  
H146     H      0.226530000000     0.797610000000     0.169430000000     0.0309323  
H147     H      0.228200000000     0.799280000000     0.111740000000     0.0308767  
H148     H      0.297620000000     0.726530000000     0.111730000000     0.0307713  
H149     H      0.299280000000     0.797600000000     0.361730000000     0.030981   
H150     H      0.226530000000     0.728180000000     0.361730000000     0.0307569  
H151     H      0.228190000000     0.726530000000     0.419420000000     0.0308022  
H152     H      0.297610000000     0.799270000000     0.419420000000     0.0309307  
H153     H      0.297420000000     0.549440000000     0.111730000000     0.0307249  
H154     H      0.228380000000     0.976330000000     0.111740000000     0.0309772  
H155     H      0.226700000000     0.977990000000     0.169430000000     0.0314701  
H156     H      0.299110000000     0.547780000000     0.169430000000     0.0308578  
H157     H      0.297420000000     0.976340000000     0.419420000000     0.0310275  
H158     H      0.228380000000     0.549450000000     0.419420000000     0.0307161  
H159     H      0.226700000000     0.547790000000     0.361720000000     0.0308304  
H160     H      0.299110000000     0.978000000000     0.361720000000     0.0315466  
H161     H      0.313090000000     0.916270000000     0.261050000000     0.0344105  
H162     H      0.212730000000     0.916270000000     0.270110000000     0.0343789  
H163     H      0.212730000000     0.859510000000     0.270110000000     0.0337437  
H164     H      0.313090000000     0.859510000000     0.261060000000     0.0337758  
H165     H      0.212730000000     0.609510000000     0.261040000000     0.0334663  
H166     H      0.313080000000     0.609510000000     0.270100000000     0.0335113  
H167     H      0.313090000000     0.666270000000     0.270100000000     0.0335079  
H168     H      0.212730000000     0.666270000000     0.261050000000     0.0334755  
H169     H      0.049450000000     0.797420000000     0.169410000000     0.0307179  
H170     H      0.476330000000     0.728390000000     0.169410000000     0.0307405  
H171     H      0.478000000000     0.726710000000     0.111710000000     0.0308301  
H172     H      0.047790000000     0.799110000000     0.111720000000     0.0306286  
H173     H      0.047790000000     0.726700000000     0.419420000000     0.0305169  
H174     H      0.478010000000     0.799100000000     0.419430000000     0.0309725  
H175     H      0.476340000000     0.797420000000     0.361730000000     0.0309031  
H176     H      0.049450000000     0.728380000000     0.361730000000     0.0305777  
H177     H      0.049280000000     0.047600000000     0.169420000000     0.030384   
H178     H      0.476510000000     0.478200000000     0.169420000000     0.0309048  
H179     H      0.478190000000     0.476510000000     0.111720000000     0.0308626  
H180     H      0.047600000000     0.049270000000     0.111720000000     0.0303792  
H181     H      0.049270000000     0.978200000000     0.361720000000     0.0313978  
H182     H      0.476510000000     0.547600000000     0.361720000000     0.0308639  
H183     H      0.478190000000     0.549280000000     0.419420000000     0.0308644  
H184     H      0.047590000000     0.976510000000     0.419420000000     0.030804   
H185     H      0.063270000000     0.916290000000     0.265440000000     0.0342403  
H186     H      0.462510000000     0.916290000000     0.265700000000     0.0342199  
H187     H      0.462510000000     0.859520000000     0.265460000000     0.0335757  
H188     H      0.063270000000     0.859520000000     0.265680000000     0.0336153  
H189     H      0.063270000000     0.609520000000     0.265700000000     0.0333482  
H190     H      0.462510000000     0.609520000000     0.265440000000     0.0333103  
H191     H      0.462510000000     0.666290000000     0.265670000000     0.0332968  
H192     H      0.063270000000     0.666290000000     0.265460000000     0.0333345  
H193     H      0.359520000000     0.813080000000     0.020100000000     0.0327238  
H194     H      0.359520000000     0.712730000000     0.511050000000     0.0334614  
H195     H      0.416280000000     0.712730000000     0.511040000000     0.0334662  
H196     H      0.416280000000     0.813080000000     0.020100000000     0.0326827  
H197     H      0.109520000000     0.712730000000     0.020100000000     0.0323067  
H198     H      0.109520000000     0.813080000000     0.511050000000     0.0333714  
H199     H      0.166280000000     0.813080000000     0.511050000000     0.0335743  
H200     H      0.166280000000     0.712730000000     0.020110000000     0.0324544  
H201     H      0.416280000000     0.962510000000     0.015440000000     0.0319266  
H202     H      0.416280000000     0.563270000000     0.515710000000     0.0332724  
H203     H      0.359510000000     0.563270000000     0.515470000000     0.0332595  
H204     H      0.359510000000     0.962510000000     0.015680000000     0.0318883  
H205     H      0.109510000000     0.962510000000     0.515700000000     0.0327069  
H206     H      0.109510000000     0.563270000000     0.015440000000     0.0320466  
H207     H      0.166280000000     0.563270000000     0.015680000000     0.0320921  
H208     H      0.166280000000     0.962510000000     0.515460000000     0.032848   
H209     H      0.299280000000     0.728190000000     0.669420000000     0.0308002  
H210     H      0.226530000000     0.797610000000     0.669430000000     0.0309084  
H211     H      0.228200000000     0.799280000000     0.611740000000     0.0308775  
H212     H      0.297620000000     0.726530000000     0.611730000000     0.0307753  
H213     H      0.299280000000     0.797600000000     0.861730000000     0.0315641  
H214     H      0.226530000000     0.728180000000     0.861730000000     0.0313441  
H215     H      0.228190000000     0.726520000000     0.919420000000     0.03262    
H216     H      0.297610000000     0.799270000000     0.919420000000     0.0327571  
H217     H      0.297420000000     0.549440000000     0.611730000000     0.0307164  
H218     H      0.228380000000     0.976330000000     0.611740000000     0.0309706  
H219     H      0.226700000000     0.977990000000     0.669430000000     0.0314647  
H220     H      0.299110000000     0.547780000000     0.669430000000     0.030839   
H221     H      0.297420000000     0.976340000000     0.919420000000     0.0328542  
H222     H      0.228380000000     0.549450000000     0.919420000000     0.0325561  
H223     H      0.226700000000     0.547790000000     0.861720000000     0.0314257  
H224     H      0.299110000000     0.978000000000     0.861720000000     0.0321392  
H225     H      0.313090000000     0.916270000000     0.761060000000     0.0345162  
H226     H      0.212730000000     0.916270000000     0.770110000000     0.0345533  
H227     H      0.212730000000     0.859510000000     0.770110000000     0.0339203  
H228     H      0.313090000000     0.859510000000     0.761060000000     0.03388    
H229     H      0.212730000000     0.609510000000     0.761050000000     0.0335754  
H230     H      0.313080000000     0.609510000000     0.770100000000     0.0336861  
H231     H      0.313090000000     0.666270000000     0.770100000000     0.0336847  
H232     H      0.212730000000     0.666270000000     0.761050000000     0.0335792  
H233     H      0.049450000000     0.797420000000     0.669410000000     0.0306914  
H234     H      0.476330000000     0.728390000000     0.669410000000     0.0307008  
H235     H      0.478000000000     0.726710000000     0.611710000000     0.0308317  
H236     H      0.047790000000     0.799110000000     0.611720000000     0.0306307  
H237     H      0.047790000000     0.726700000000     0.919420000000     0.0323498  
H238     H      0.478010000000     0.799100000000     0.919420000000     0.0327964  
H239     H      0.476340000000     0.797420000000     0.861730000000     0.0314812  
H240     H      0.049450000000     0.728380000000     0.861730000000     0.0311721  
H241     H      0.049280000000     0.047600000000     0.669420000000     0.0303609  
H242     H      0.476510000000     0.478200000000     0.669420000000     0.0308819  
H243     H      0.478190000000     0.476510000000     0.611720000000     0.0308556  
H244     H      0.047600000000     0.049270000000     0.611720000000     0.0303727  
H245     H      0.049270000000     0.978200000000     0.861720000000     0.0320007  
H246     H      0.476510000000     0.547600000000     0.861730000000     0.0314724  
H247     H      0.478190000000     0.549280000000     0.919420000000     0.0327308  
H248     H      0.047590000000     0.976510000000     0.919420000000     0.0326528  
H249     H      0.063270000000     0.916290000000     0.765440000000     0.0343781  
H250     H      0.462510000000     0.916290000000     0.765700000000     0.0343575  
H251     H      0.462510000000     0.859520000000     0.765470000000     0.0337063  
H252     H      0.063270000000     0.859520000000     0.765680000000     0.0337613  
H253     H      0.063270000000     0.609520000000     0.765700000000     0.0334873  
H254     H      0.462510000000     0.609520000000     0.765440000000     0.033451   
H255     H      0.462510000000     0.666290000000     0.765680000000     0.0334446  
H256     H      0.063270000000     0.666290000000     0.765460000000     0.0334659  
H257     H      0.859520000000     0.313080000000     0.520100000000     0.0337551  
H258     H      0.859520000000     0.212730000000     0.011050000000     0.0325777  
H259     H      0.916280000000     0.212730000000     0.011040000000     0.0332185  
H260     H      0.916280000000     0.313080000000     0.520100000000     0.0343905  
H261     H      0.609520000000     0.212730000000     0.520100000000     0.0334162  
H262     H      0.609520000000     0.313080000000     0.011050000000     0.0323596  
H263     H      0.666280000000     0.313080000000     0.011050000000     0.0323576  
H264     H      0.666280000000     0.212730000000     0.520110000000     0.0334197  
H265     H      0.916280000000     0.462510000000     0.515440000000     0.0341671  
H266     H      0.916280000000     0.063270000000     0.015710000000     0.0331909  
H267     H      0.859510000000     0.063270000000     0.015470000000     0.0326023  
H268     H      0.859510000000     0.462510000000     0.515680000000     0.0335523  
H269     H      0.609510000000     0.462510000000     0.015700000000     0.0322384  
H270     H      0.609510000000     0.063270000000     0.515440000000     0.0333258  
H271     H      0.666280000000     0.063270000000     0.515680000000     0.0332941  
H272     H      0.666280000000     0.462510000000     0.015460000000     0.0322742  
H273     H      0.799280000000     0.228190000000     0.169420000000     0.0309068  
H274     H      0.726530000000     0.297610000000     0.169430000000     0.0308301  
H275     H      0.728200000000     0.299280000000     0.111740000000     0.0307975  
H276     H      0.797620000000     0.226530000000     0.111730000000     0.0308789  
H277     H      0.799280000000     0.297600000000     0.361730000000     0.0309617  
H278     H      0.726530000000     0.228180000000     0.361730000000     0.0307987  
H279     H      0.728190000000     0.226520000000     0.419420000000     0.0307782  
H280     H      0.797610000000     0.299270000000     0.419420000000     0.0309464  
H281     H      0.797420000000     0.049440000000     0.111730000000     0.0306961  
H282     H      0.728380000000     0.476330000000     0.111740000000     0.0307241  
H283     H      0.726700000000     0.477990000000     0.169430000000     0.0308292  
H284     H      0.799100000000     0.047780000000     0.169430000000     0.0306694  
H285     H      0.797420000000     0.476330000000     0.419420000000     0.030872   
H286     H      0.728380000000     0.049450000000     0.419420000000     0.0305956  
H287     H      0.726700000000     0.047790000000     0.361720000000     0.0305106  
H288     H      0.799100000000     0.478000000000     0.361720000000     0.0310195  
H289     H      0.813080000000     0.416270000000     0.261050000000     0.03366    
H290     H      0.712730000000     0.416270000000     0.270110000000     0.0335066  
H291     H      0.712730000000     0.359510000000     0.270110000000     0.0335147  
H292     H      0.813080000000     0.359510000000     0.261060000000     0.0336707  
H293     H      0.712730000000     0.109510000000     0.261040000000     0.0332604  
H294     H      0.813080000000     0.109510000000     0.270100000000     0.0334151  
H295     H      0.813080000000     0.166270000000     0.270100000000     0.0335932  
H296     H      0.712730000000     0.166270000000     0.261050000000     0.0334346  
H297     H      0.549450000000     0.297420000000     0.169410000000     0.0307585  
H298     H      0.976330000000     0.228390000000     0.169410000000     0.03099    
H299     H      0.978000000000     0.226710000000     0.111710000000     0.0314724  
H300     H      0.547790000000     0.299110000000     0.111720000000     0.0307919  
H301     H      0.547790000000     0.226700000000     0.419420000000     0.0308052  
H302     H      0.978010000000     0.299100000000     0.419430000000     0.0315212  
H303     H      0.976340000000     0.297420000000     0.361730000000     0.0310369  
H304     H      0.549450000000     0.228380000000     0.361730000000     0.0307102  
H305     H      0.549280000000     0.547600000000     0.169420000000     0.0308415  
H306     H      0.976510000000     0.978200000000     0.169420000000     0.0318372  
H307     H      0.978200000000     0.976510000000     0.111720000000     0.0317553  
H308     H      0.547600000000     0.549270000000     0.111720000000     0.030813   
H309     H      0.549270000000     0.478200000000     0.361720000000     0.0308818  
H310     H      0.976510000000     0.047600000000     0.361720000000     0.030824   
H311     H      0.978190000000     0.049270000000     0.419430000000     0.0313884  
H312     H      0.547590000000     0.476510000000     0.419420000000     0.0308611  
H313     H      0.563270000000     0.416290000000     0.265440000000     0.0333141  
H314     H      0.962510000000     0.416290000000     0.265700000000     0.0329712  
H315     H      0.962510000000     0.359520000000     0.265460000000     0.0329721  
H316     H      0.563270000000     0.359520000000     0.265680000000     0.0333142  
H317     H      0.563270000000     0.109520000000     0.265700000000     0.0330676  
H318     H      0.962510000000     0.109520000000     0.265440000000     0.0327258  
H319     H      0.962510000000     0.166290000000     0.265680000000     0.0328942  
H320     H      0.563270000000     0.166290000000     0.265460000000     0.0332356  
H321     H      0.859520000000     0.313080000000     0.020100000000     0.0328334  
H322     H      0.859520000000     0.212730000000     0.511050000000     0.0336925  
H323     H      0.916280000000     0.212730000000     0.511040000000     0.0343344  
H324     H      0.916280000000     0.313080000000     0.020100000000     0.0334734  
H325     H      0.609520000000     0.212730000000     0.020100000000     0.0324968  
H326     H      0.609520000000     0.313080000000     0.511050000000     0.0334804  
H327     H      0.666280000000     0.313080000000     0.511050000000     0.0334742  
H328     H      0.666280000000     0.212730000000     0.020110000000     0.0324971  
H329     H      0.916280000000     0.462510000000     0.015440000000     0.0331628  
H330     H      0.916280000000     0.063270000000     0.515710000000     0.0342185  
H331     H      0.859510000000     0.063270000000     0.515470000000     0.0335828  
H332     H      0.859510000000     0.462510000000     0.015680000000     0.0324974  
H333     H      0.609510000000     0.462510000000     0.515700000000     0.0332717  
H334     H      0.609510000000     0.063270000000     0.015440000000     0.03232    
H335     H      0.666280000000     0.063270000000     0.015680000000     0.0322409  
H336     H      0.666280000000     0.462510000000     0.515460000000     0.0332589  
H337     H      0.799280000000     0.228190000000     0.669420000000     0.0308804  
H338     H      0.726530000000     0.297610000000     0.669430000000     0.0308061  
H339     H      0.728200000000     0.299280000000     0.611740000000     0.0307984  
H340     H      0.797620000000     0.226530000000     0.611730000000     0.0308825  
H341     H      0.799280000000     0.297600000000     0.861730000000     0.0315427  
H342     H      0.726530000000     0.228180000000     0.861730000000     0.031383   
H343     H      0.728190000000     0.226520000000     0.919420000000     0.0325966  
H344     H      0.797610000000     0.299270000000     0.919420000000     0.0327678  
H345     H      0.797420000000     0.049440000000     0.611730000000     0.0306869  
H346     H      0.728380000000     0.476330000000     0.611740000000     0.0307175  
H347     H      0.726700000000     0.477990000000     0.669430000000     0.0308217  
H348     H      0.799100000000     0.047780000000     0.669430000000     0.0306499  
H349     H      0.797420000000     0.476330000000     0.919420000000     0.0326963  
H350     H      0.728380000000     0.049450000000     0.919420000000     0.0324284  
H351     H      0.726700000000     0.047790000000     0.861720000000     0.031104   
H352     H      0.799100000000     0.478000000000     0.861730000000     0.0316054  
H353     H      0.813080000000     0.416270000000     0.761060000000     0.0337658  
H354     H      0.712730000000     0.416270000000     0.770110000000     0.0336819  
H355     H      0.712730000000     0.359510000000     0.770110000000     0.0336914  
H356     H      0.813080000000     0.359510000000     0.761060000000     0.0337742  
H357     H      0.712730000000     0.109510000000     0.761050000000     0.033369   
H358     H      0.813080000000     0.109510000000     0.770100000000     0.0335882  
H359     H      0.813080000000     0.166270000000     0.770100000000     0.0337685  
H360     H      0.712730000000     0.166270000000     0.761050000000     0.0335379  
H361     H      0.549450000000     0.297420000000     0.669410000000     0.0307336  
H362     H      0.976330000000     0.228390000000     0.669410000000     0.0309472  
H363     H      0.978000000000     0.226710000000     0.611710000000     0.0314721  
H364     H      0.547790000000     0.299110000000     0.611720000000     0.0307924  
H365     H      0.547790000000     0.226700000000     0.919420000000     0.0326348  
H366     H      0.978010000000     0.299100000000     0.919420000000     0.0333339  
H367     H      0.976340000000     0.297420000000     0.861730000000     0.03161    
H368     H      0.549450000000     0.228380000000     0.861730000000     0.031304   
H369     H      0.549280000000     0.547600000000     0.669420000000     0.0308186  
H370     H      0.976510000000     0.978200000000     0.669420000000     0.0318127  
H371     H      0.978200000000     0.976510000000     0.611720000000     0.0317463  
H372     H      0.547600000000     0.549270000000     0.611720000000     0.0308066  
H373     H      0.549270000000     0.478200000000     0.861720000000     0.031486   
H374     H      0.976510000000     0.047600000000     0.861720000000     0.0314241  
H375     H      0.978190000000     0.049280000000     0.919420000000     0.0332303  
H376     H      0.547590000000     0.476510000000     0.919420000000     0.0327119  
H377     H      0.563270000000     0.416290000000     0.765440000000     0.0334529  
H378     H      0.962510000000     0.416290000000     0.765700000000     0.0331108  
H379     H      0.962510000000     0.359520000000     0.765460000000     0.0331049  
H380     H      0.563270000000     0.359520000000     0.765680000000     0.0334607  
H381     H      0.563270000000     0.109520000000     0.765700000000     0.0332066  
H382     H      0.962510000000     0.109520000000     0.765440000000     0.0328654  
H383     H      0.962510000000     0.166290000000     0.765680000000     0.0330414  
H384     H      0.563270000000     0.166290000000     0.765460000000     0.0333672  
H385     H      0.859520000000     0.813080000000     0.520100000000     0.0338871  
H386     H      0.859520000000     0.712730000000     0.011050000000     0.0325858  
H387     H      0.916280000000     0.712730000000     0.011040000000     0.0332431  
H388     H      0.916280000000     0.813080000000     0.520100000000     0.034493   
H389     H      0.609520000000     0.712730000000     0.520100000000     0.0334423  
H390     H      0.609520000000     0.813080000000     0.011050000000     0.0324651  
H391     H      0.666280000000     0.813080000000     0.011050000000     0.0324917  
H392     H      0.666280000000     0.712730000000     0.520110000000     0.0334289  
H393     H      0.916280000000     0.962510000000     0.515440000000     0.0338096  
H394     H      0.916280000000     0.563270000000     0.015710000000     0.033123   
H395     H      0.859510000000     0.563270000000     0.015470000000     0.0325167  
H396     H      0.859510000000     0.962510000000     0.515680000000     0.0331811  
H397     H      0.609510000000     0.962510000000     0.015700000000     0.0318861  
H398     H      0.609510000000     0.563270000000     0.515440000000     0.0332584  
H399     H      0.666280000000     0.563270000000     0.515680000000     0.0331963  
H400     H      0.666280000000     0.962510000000     0.015460000000     0.0319161  
H401     H      0.799280000000     0.728190000000     0.169420000000     0.0309263  
H402     H      0.726530000000     0.797610000000     0.169430000000     0.0309425  
H403     H      0.728200000000     0.799280000000     0.111740000000     0.0308908  
H404     H      0.797620000000     0.726530000000     0.111730000000     0.0308862  
H405     H      0.799280000000     0.797600000000     0.361730000000     0.0310748  
H406     H      0.726530000000     0.728180000000     0.361730000000     0.0307895  
H407     H      0.728190000000     0.726530000000     0.419420000000     0.0308089  
H408     H      0.797610000000     0.799270000000     0.419420000000     0.03105    
H409     H      0.797420000000     0.549440000000     0.111730000000     0.0308452  
H410     H      0.728380000000     0.976330000000     0.111740000000     0.0309971  
H411     H      0.726700000000     0.977990000000     0.169430000000     0.0314837  
H412     H      0.799100000000     0.547780000000     0.169430000000     0.030973   
H413     H      0.797420000000     0.976340000000     0.419420000000     0.0311439  
H414     H      0.728380000000     0.549450000000     0.419420000000     0.0307253  
H415     H      0.726700000000     0.547790000000     0.361720000000     0.0308435  
H416     H      0.799100000000     0.978000000000     0.361720000000     0.0316555  
H417     H      0.813080000000     0.916270000000     0.261050000000     0.0345396  
H418     H      0.712730000000     0.916270000000     0.270110000000     0.0343886  
H419     H      0.712730000000     0.859510000000     0.270110000000     0.033754   
H420     H      0.813080000000     0.859510000000     0.261060000000     0.0339084  
H421     H      0.712730000000     0.609510000000     0.261040000000     0.0334753  
H422     H      0.813080000000     0.609510000000     0.270100000000     0.0336309  
H423     H      0.813080000000     0.666270000000     0.270100000000     0.0336447  
H424     H      0.712730000000     0.666270000000     0.261050000000     0.033486   
H425     H      0.549450000000     0.797420000000     0.169410000000     0.0308754  
H426     H      0.976330000000     0.728390000000     0.169410000000     0.0310194  
H427     H      0.978000000000     0.726710000000     0.111710000000     0.031489   
H428     H      0.547790000000     0.799110000000     0.111720000000     0.0309004  
H429     H      0.547790000000     0.726700000000     0.419420000000     0.030797   
H430     H      0.978010000000     0.799100000000     0.419430000000     0.031628   
H431     H      0.976340000000     0.797420000000     0.361730000000     0.0311581  
H432     H      0.549450000000     0.728380000000     0.361730000000     0.0307368  
H433     H      0.549280000000     0.047600000000     0.169420000000     0.0305381  
H434     H      0.976510000000     0.478200000000     0.169420000000     0.0311715  
H435     H      0.978200000000     0.476510000000     0.111720000000     0.0315133  
H436     H      0.547600000000     0.049270000000     0.111720000000     0.0306684  
H437     H      0.549270000000     0.978200000000     0.361720000000     0.0315388  
H438     H      0.976510000000     0.547600000000     0.361720000000     0.0311372  
H439     H      0.978190000000     0.549280000000     0.419430000000     0.0315307  
H440     H      0.547590000000     0.976510000000     0.419420000000     0.0311301  
H441     H      0.563270000000     0.916290000000     0.265440000000     0.0341752  
H442     H      0.962510000000     0.916290000000     0.265700000000     0.0338478  
H443     H      0.962510000000     0.859520000000     0.265460000000     0.033204   
H444     H      0.563270000000     0.859520000000     0.265680000000     0.0335485  
H445     H      0.563270000000     0.609520000000     0.265700000000     0.0332808  
H446     H      0.962510000000     0.609520000000     0.265440000000     0.0329401  
H447     H      0.962510000000     0.666290000000     0.265680000000     0.0329259  
H448     H      0.563270000000     0.666290000000     0.265460000000     0.0332679  
H449     H      0.859520000000     0.813080000000     0.020100000000     0.0329657  
H450     H      0.859520000000     0.712730000000     0.511050000000     0.0337026  
H451     H      0.916280000000     0.712730000000     0.511040000000     0.0343608  
H452     H      0.916280000000     0.813080000000     0.020100000000     0.0335763  
H453     H      0.609520000000     0.712730000000     0.020100000000     0.0325214  
H454     H      0.609520000000     0.813080000000     0.511050000000     0.0335857  
H455     H      0.666280000000     0.813080000000     0.511050000000     0.0336082  
H456     H      0.666280000000     0.712730000000     0.020110000000     0.0325047  
H457     H      0.916280000000     0.962510000000     0.015440000000     0.0328078  
H458     H      0.916280000000     0.563270000000     0.515710000000     0.0341527  
H459     H      0.859510000000     0.563270000000     0.515470000000     0.0334996  
H460     H      0.859510000000     0.962510000000     0.015680000000     0.0321289  
H461     H      0.609510000000     0.962510000000     0.515700000000     0.0329168  
H462     H      0.609510000000     0.563270000000     0.015440000000     0.0322504  
H463     H      0.666280000000     0.563270000000     0.015680000000     0.0321405  
H464     H      0.666280000000     0.962510000000     0.515460000000     0.0328985  
H465     H      0.799280000000     0.728190000000     0.669420000000     0.0308936  
H466     H      0.726530000000     0.797610000000     0.669430000000     0.0309164  
H467     H      0.728200000000     0.799280000000     0.611740000000     0.0308915  
H468     H      0.797620000000     0.726530000000     0.611730000000     0.0308891  
H469     H      0.799280000000     0.797600000000     0.861730000000     0.0316488  
H470     H      0.726530000000     0.728180000000     0.861730000000     0.0313732  
H471     H      0.728190000000     0.726520000000     0.919420000000     0.0326224  
H472     H      0.797610000000     0.799270000000     0.919420000000     0.0328679  
H473     H      0.797420000000     0.549440000000     0.611730000000     0.0308361  
H474     H      0.728380000000     0.976330000000     0.611740000000     0.0309904  
H475     H      0.726700000000     0.977990000000     0.669430000000     0.0314781  
H476     H      0.799100000000     0.547780000000     0.669430000000     0.0309535  
H477     H      0.797420000000     0.976340000000     0.919420000000     0.0329625  
H478     H      0.728380000000     0.549450000000     0.919420000000     0.0325611  
H479     H      0.726700000000     0.547790000000     0.861720000000     0.0314373  
H480     H      0.799100000000     0.978000000000     0.861720000000     0.0322445  
H481     H      0.813080000000     0.916270000000     0.761060000000     0.0346434  
H482     H      0.712730000000     0.916270000000     0.770110000000     0.0345625  
H483     H      0.712730000000     0.859510000000     0.770110000000     0.033928   
H484     H      0.813080000000     0.859510000000     0.761060000000     0.034003   
H485     H      0.712730000000     0.609510000000     0.761050000000     0.0335841  
H486     H      0.813080000000     0.609510000000     0.770100000000     0.0338032  
H487     H      0.813080000000     0.666270000000     0.770100000000     0.0338115  
H488     H      0.712730000000     0.666270000000     0.761050000000     0.0335872  
H489     H      0.549450000000     0.797420000000     0.669410000000     0.0308502  
H490     H      0.976330000000     0.728390000000     0.669410000000     0.0309525  
H491     H      0.978000000000     0.726710000000     0.611710000000     0.0314987  
H492     H      0.547790000000     0.799110000000     0.611720000000     0.0309007  
H493     H      0.547790000000     0.726700000000     0.919420000000     0.0326268  
H494     H      0.978010000000     0.799100000000     0.919420000000     0.0334375  
H495     H      0.976340000000     0.797420000000     0.861730000000     0.0317285  
H496     H      0.549450000000     0.728380000000     0.861730000000     0.0313305  
H497     H      0.549280000000     0.047600000000     0.669420000000     0.0305149  
H498     H      0.976510000000     0.478200000000     0.669420000000     0.0311476  
H499     H      0.978200000000     0.476510000000     0.611720000000     0.0315045  
H500     H      0.547600000000     0.049270000000     0.611720000000     0.0306617  
H501     H      0.549270000000     0.978200000000     0.861720000000     0.0321409  
H502     H      0.976510000000     0.547600000000     0.861720000000     0.0317369  
H503     H      0.978190000000     0.549280000000     0.919420000000     0.0333793  
H504     H      0.547590000000     0.976510000000     0.919420000000     0.0329756  
H505     H      0.563270000000     0.916290000000     0.765440000000     0.0343129  
H506     H      0.962510000000     0.916290000000     0.765700000000     0.0339853  
H507     H      0.962510000000     0.859520000000     0.765460000000     0.0333337  
H508     H      0.563270000000     0.859520000000     0.765680000000     0.0336941  
H509     H      0.563270000000     0.609520000000     0.765700000000     0.0334201  
H510     H      0.962510000000     0.609520000000     0.765440000000     0.0330791  
H511     H      0.962510000000     0.666290000000     0.765680000000     0.0330709  
H512     H      0.563270000000     0.666290000000     0.765460000000     0.0333991  
N1       N      0.355010000000     0.262900000000     0.015570000000    -0.189627   
N2       N      0.420790000000     0.262900000000     0.015570000000    -0.189607   
N3       N      0.105010000000     0.262900000000     0.015570000000    -0.189529   
N4       N      0.170800000000     0.262900000000     0.015580000000    -0.189724   
N5       N      0.420780000000     0.012890000000     0.015570000000    -0.192496   
N6       N      0.355000000000     0.012890000000     0.015580000000    -0.192552   
N7       N      0.105000000000     0.012890000000     0.015570000000    -0.192377   
N8       N      0.170780000000     0.012890000000     0.015570000000    -0.19258    
N9       N      0.262910000000     0.262900000000     0.173400000000    -0.190569   
N10      N      0.262910000000     0.262900000000     0.107760000000    -0.190401   
N11      N      0.262900000000     0.262890000000     0.357760000000    -0.190544   
N12      N      0.262900000000     0.262900000000     0.423400000000    -0.190585   
N13      N      0.262900000000     0.512890000000     0.107760000000    -0.190475   
N14      N      0.262900000000     0.512890000000     0.173400000000    -0.190617   
N15      N      0.262900000000     0.512890000000     0.423390000000    -0.190657   
N16      N      0.262900000000     0.012890000000     0.357750000000    -0.194737   
N17      N      0.262910000000     0.420790000000     0.265580000000    -0.189513   
N18      N      0.262910000000     0.355000000000     0.265580000000    -0.189441   
N19      N      0.262910000000     0.105000000000     0.265570000000    -0.189334   
N20      N      0.262910000000     0.170790000000     0.265570000000    -0.189532   
N21      N      0.512890000000     0.262910000000     0.173380000000    -0.190633   
N22      N      0.512900000000     0.262910000000     0.107750000000    -0.190456   
N23      N      0.512900000000     0.262900000000     0.423390000000    -0.19062    
N24      N      0.512890000000     0.262900000000     0.357760000000    -0.190647   
N25      N      0.012890000000     0.512900000000     0.173390000000    -0.193361   
N26      N      0.012890000000     0.512890000000     0.107760000000    -0.194573   
N27      N      0.012890000000     0.512900000000     0.357760000000    -0.193349   
N28      N      0.012890000000     0.512890000000     0.423390000000    -0.194771   
N29      N      0.512890000000     0.420790000000     0.265570000000    -0.189551   
N30      N      0.012890000000     0.355010000000     0.265570000000    -0.192391   
N31      N      0.512890000000     0.105010000000     0.265570000000    -0.189463   
N32      N      0.012890000000     0.170790000000     0.265570000000    -0.192392   
N33      N      0.355010000000     0.262900000000     0.515570000000    -0.189453   
N34      N      0.420790000000     0.262900000000     0.515570000000    -0.189437   
N35      N      0.105010000000     0.262900000000     0.515570000000    -0.189358   
N36      N      0.170800000000     0.262900000000     0.515580000000    -0.189551   
N37      N      0.420780000000     0.012890000000     0.515570000000    -0.192334   
N38      N      0.355000000000     0.012890000000     0.515580000000    -0.192395   
N39      N      0.105000000000     0.012890000000     0.515570000000    -0.192215   
N40      N      0.170780000000     0.012890000000     0.515570000000    -0.19242    
N41      N      0.262910000000     0.262900000000     0.673400000000    -0.190577   
N42      N      0.262910000000     0.262900000000     0.607760000000    -0.190504   
N43      N      0.262900000000     0.262890000000     0.857760000000    -0.190534   
N44      N      0.262900000000     0.262900000000     0.923400000000    -0.189598   
N45      N      0.262900000000     0.512890000000     0.607760000000    -0.19066    
N46      N      0.262900000000     0.512890000000     0.673400000000    -0.190611   
N47      N      0.262900000000     0.512890000000     0.923390000000    -0.18967    
N48      N      0.262900000000     0.012890000000     0.857750000000    -0.194638   
N49      N      0.262910000000     0.420790000000     0.765580000000    -0.18948    
N50      N      0.262910000000     0.355000000000     0.765580000000    -0.189408   
N51      N      0.262910000000     0.105000000000     0.765570000000    -0.189304   
N52      N      0.262910000000     0.170790000000     0.765570000000    -0.189499   
N53      N      0.512890000000     0.262910000000     0.673380000000    -0.190652   
N54      N      0.512900000000     0.262910000000     0.607750000000    -0.190562   
N55      N      0.512900000000     0.262900000000     0.923390000000    -0.189637   
N56      N      0.512890000000     0.262900000000     0.857760000000    -0.190565   
N57      N      0.012890000000     0.512900000000     0.673390000000    -0.193361   
N58      N      0.012890000000     0.512890000000     0.607760000000    -0.194756   
N59      N      0.012890000000     0.512900000000     0.857760000000    -0.193244   
N60      N      0.012890000000     0.512890000000     0.923390000000    -0.193751   
N61      N      0.512890000000     0.420790000000     0.765570000000    -0.189516   
N62      N      0.012890000000     0.355010000000     0.765570000000    -0.192346   
N63      N      0.512890000000     0.105010000000     0.765570000000    -0.189427   
N64      N      0.012890000000     0.170790000000     0.765570000000    -0.192347   
N65      N      0.355010000000     0.762900000000     0.015570000000    -0.189615   
N66      N      0.420790000000     0.762910000000     0.015570000000    -0.189605   
N67      N      0.105010000000     0.762910000000     0.015570000000    -0.189526   
N68      N      0.170800000000     0.762900000000     0.015580000000    -0.189712   
N69      N      0.420780000000     0.512890000000     0.015570000000    -0.189749   
N70      N      0.355000000000     0.512890000000     0.015580000000    -0.189716   
N71      N      0.105000000000     0.512890000000     0.015570000000    -0.189632   
N72      N      0.170780000000     0.512890000000     0.015570000000    -0.189809   
N73      N      0.262910000000     0.762900000000     0.173400000000    -0.190558   
N74      N      0.262910000000     0.762900000000     0.107760000000    -0.190449   
N75      N      0.262900000000     0.762890000000     0.357760000000    -0.190561   
N76      N      0.262900000000     0.762900000000     0.423400000000    -0.190558   
N77      N      0.262900000000     0.012890000000     0.107760000000    -0.193186   
N78      N      0.262900000000     0.012890000000     0.173400000000    -0.194738   
N79      N      0.262900000000     0.012890000000     0.423390000000    -0.193364   
N80      N      0.262900000000     0.512900000000     0.357750000000    -0.190588   
N81      N      0.262910000000     0.920790000000     0.265580000000    -0.188899   
N82      N      0.262910000000     0.855000000000     0.265580000000    -0.189421   
N83      N      0.262910000000     0.605000000000     0.265570000000    -0.189429   
N84      N      0.262910000000     0.670790000000     0.265570000000    -0.189529   
N85      N      0.512890000000     0.762910000000     0.173380000000    -0.190646   
N86      N      0.512900000000     0.762910000000     0.107750000000    -0.190443   
N87      N      0.512900000000     0.762900000000     0.423390000000    -0.190637   
N88      N      0.512890000000     0.762900000000     0.357760000000    -0.190636   
N89      N      0.012890000000     0.012900000000     0.173390000000    -0.197449   
N90      N      0.012890000000     0.012890000000     0.107760000000    -0.197288   
N91      N      0.012890000000     0.012900000000     0.357760000000    -0.197459   
N92      N      0.012890000000     0.012890000000     0.423390000000    -0.197489   
N93      N      0.512890000000     0.920790000000     0.265570000000    -0.18895    
N94      N      0.012890000000     0.855010000000     0.265570000000    -0.192358   
N95      N      0.512890000000     0.605010000000     0.265570000000    -0.189556   
N96      N      0.012890000000     0.670790000000     0.265570000000    -0.192424   
N97      N      0.355010000000     0.762900000000     0.515570000000    -0.189441   
N98      N      0.420790000000     0.762910000000     0.515570000000    -0.189434   
N99      N      0.105010000000     0.762910000000     0.515570000000    -0.189355   
N100     N      0.170800000000     0.762900000000     0.515580000000    -0.189538   
N101     N      0.420780000000     0.512890000000     0.515570000000    -0.189579   
N102     N      0.355000000000     0.512890000000     0.515580000000    -0.189551   
N103     N      0.105000000000     0.512890000000     0.515570000000    -0.189462   
N104     N      0.170780000000     0.512890000000     0.515570000000    -0.18964    
N105     N      0.262910000000     0.762900000000     0.673400000000    -0.190566   
N106     N      0.262910000000     0.762900000000     0.607760000000    -0.190552   
N107     N      0.262900000000     0.762890000000     0.857760000000    -0.19055    
N108     N      0.262900000000     0.762900000000     0.923400000000    -0.189575   
N109     N      0.262900000000     0.012890000000     0.607760000000    -0.193374   
N110     N      0.262900000000     0.012890000000     0.673400000000    -0.194733   
N111     N      0.262900000000     0.012890000000     0.923390000000    -0.192373   
N112     N      0.262900000000     0.512900000000     0.857750000000    -0.190495   
N113     N      0.262910000000     0.920790000000     0.765580000000    -0.188866   
N114     N      0.262910000000     0.855000000000     0.765580000000    -0.189388   
N115     N      0.262910000000     0.605000000000     0.765570000000    -0.189399   
N116     N      0.262910000000     0.670790000000     0.765570000000    -0.189497   
N117     N      0.512890000000     0.762910000000     0.673380000000    -0.190665   
N118     N      0.512900000000     0.762910000000     0.607750000000    -0.190548   
N119     N      0.512900000000     0.762900000000     0.923390000000    -0.189655   
N120     N      0.512890000000     0.762900000000     0.857760000000    -0.190554   
N121     N      0.012890000000     0.012900000000     0.673390000000    -0.197452   
N122     N      0.012890000000     0.012890000000     0.607760000000    -0.197474   
N123     N      0.012890000000     0.012900000000     0.857760000000    -0.197345   
N124     N      0.012890000000     0.012890000000     0.923390000000    -0.196468   
N125     N      0.512890000000     0.920790000000     0.765570000000    -0.188915   
N126     N      0.012890000000     0.855010000000     0.765570000000    -0.192313   
N127     N      0.512890000000     0.605010000000     0.765570000000    -0.189519   
N128     N      0.012890000000     0.670790000000     0.765570000000    -0.192379   
N129     N      0.855010000000     0.262900000000     0.015570000000    -0.189606   
N130     N      0.920800000000     0.262900000000     0.015570000000    -0.189079   
N131     N      0.605010000000     0.262900000000     0.015570000000    -0.189629   
N132     N      0.670800000000     0.262900000000     0.015580000000    -0.189735   
N133     N      0.920780000000     0.012890000000     0.015570000000    -0.191873   
N134     N      0.855000000000     0.012890000000     0.015580000000    -0.192525   
N135     N      0.605000000000     0.012890000000     0.015570000000    -0.192472   
N136     N      0.670780000000     0.012890000000     0.015570000000    -0.192582   
N137     N      0.762910000000     0.262900000000     0.173400000000    -0.190561   
N138     N      0.762910000000     0.262900000000     0.107760000000    -0.190392   
N139     N      0.762910000000     0.262890000000     0.357760000000    -0.190471   
N140     N      0.762900000000     0.262900000000     0.423400000000    -0.190578   
N141     N      0.762900000000     0.512890000000     0.107760000000    -0.190476   
N142     N      0.762900000000     0.512890000000     0.173400000000    -0.190608   
N143     N      0.762900000000     0.512890000000     0.423390000000    -0.190658   
N144     N      0.762900000000     0.012890000000     0.357750000000    -0.194748   
N145     N      0.762910000000     0.420790000000     0.265580000000    -0.189507   
N146     N      0.762910000000     0.355000000000     0.265580000000    -0.189433   
N147     N      0.762910000000     0.105000000000     0.265570000000    -0.189333   
N148     N      0.762910000000     0.170790000000     0.265570000000    -0.189521   
N149     N      0.012890000000     0.262910000000     0.173380000000    -0.193363   
N150     N      0.012900000000     0.262910000000     0.107750000000    -0.194565   
N151     N      0.012900000000     0.262900000000     0.423390000000    -0.194744   
N152     N      0.012890000000     0.262900000000     0.357760000000    -0.193377   
N153     N      0.512890000000     0.512900000000     0.173390000000    -0.19063    
N154     N      0.512900000000     0.512890000000     0.107760000000    -0.190443   
N155     N      0.512890000000     0.512900000000     0.357760000000    -0.190624   
N156     N      0.512890000000     0.512890000000     0.423390000000    -0.190641   
N157     N      0.012890000000     0.420790000000     0.265570000000    -0.192377   
N158     N      0.512890000000     0.355010000000     0.265570000000    -0.189566   
N159     N      0.012890000000     0.105010000000     0.265570000000    -0.192285   
N160     N      0.512890000000     0.170790000000     0.265570000000    -0.189571   
N161     N      0.855010000000     0.262900000000     0.515570000000    -0.189433   
N162     N      0.920800000000     0.262900000000     0.515570000000    -0.188909   
N163     N      0.605010000000     0.262900000000     0.515570000000    -0.189458   
N164     N      0.670800000000     0.262900000000     0.515580000000    -0.189561   
N165     N      0.920780000000     0.012890000000     0.515570000000    -0.191713   
N166     N      0.855000000000     0.012890000000     0.515580000000    -0.192369   
N167     N      0.605000000000     0.012890000000     0.515570000000    -0.192311   
N168     N      0.670780000000     0.012890000000     0.515570000000    -0.192422   
N169     N      0.762910000000     0.262900000000     0.673400000000    -0.190569   
N170     N      0.762910000000     0.262900000000     0.607760000000    -0.190495   
N171     N      0.762910000000     0.262890000000     0.857760000000    -0.190462   
N172     N      0.762900000000     0.262900000000     0.923400000000    -0.189595   
N173     N      0.762900000000     0.512890000000     0.607760000000    -0.190661   
N174     N      0.762900000000     0.512890000000     0.673400000000    -0.190601   
N175     N      0.762900000000     0.512890000000     0.923390000000    -0.189673   
N176     N      0.762900000000     0.012890000000     0.857750000000    -0.19465    
N177     N      0.762910000000     0.420790000000     0.765580000000    -0.189474   
N178     N      0.762910000000     0.355000000000     0.765580000000    -0.1894     
N179     N      0.762910000000     0.105000000000     0.765570000000    -0.189303   
N180     N      0.762910000000     0.170790000000     0.765570000000    -0.189489   
N181     N      0.012890000000     0.262910000000     0.673380000000    -0.193379   
N182     N      0.012900000000     0.262910000000     0.607750000000    -0.194663   
N183     N      0.012900000000     0.262900000000     0.923390000000    -0.193736   
N184     N      0.012890000000     0.262900000000     0.857760000000    -0.193282   
N185     N      0.512890000000     0.512900000000     0.673390000000    -0.190635   
N186     N      0.512900000000     0.512890000000     0.607760000000    -0.190634   
N187     N      0.512890000000     0.512900000000     0.857760000000    -0.190525   
N188     N      0.512890000000     0.512890000000     0.923390000000    -0.189651   
N189     N      0.012890000000     0.420790000000     0.765570000000    -0.192332   
N190     N      0.512890000000     0.355010000000     0.765570000000    -0.189531   
N191     N      0.012890000000     0.105010000000     0.765570000000    -0.192239   
N192     N      0.512890000000     0.170790000000     0.765570000000    -0.189535   
N193     N      0.855010000000     0.762900000000     0.015570000000    -0.189594   
N194     N      0.920800000000     0.762910000000     0.015570000000    -0.189077   
N195     N      0.605010000000     0.762910000000     0.015570000000    -0.189626   
N196     N      0.670800000000     0.762900000000     0.015580000000    -0.189723   
N197     N      0.920780000000     0.512890000000     0.015570000000    -0.189129   
N198     N      0.855000000000     0.512890000000     0.015580000000    -0.189694   
N199     N      0.605000000000     0.512890000000     0.015570000000    -0.189726   
N200     N      0.670780000000     0.512890000000     0.015570000000    -0.189809   
N201     N      0.762910000000     0.762900000000     0.173400000000    -0.19055    
N202     N      0.762910000000     0.762900000000     0.107760000000    -0.190441   
N203     N      0.762910000000     0.762890000000     0.357760000000    -0.190488   
N204     N      0.762900000000     0.762900000000     0.423400000000    -0.190552   
N205     N      0.762900000000     0.012890000000     0.107760000000    -0.193179   
N206     N      0.762900000000     0.012890000000     0.173400000000    -0.194727   
N207     N      0.762900000000     0.012890000000     0.423390000000    -0.193356   
N208     N      0.762900000000     0.512900000000     0.357750000000    -0.190578   
N209     N      0.762910000000     0.920790000000     0.265580000000    -0.188893   
N210     N      0.762910000000     0.855000000000     0.265580000000    -0.189413   
N211     N      0.762910000000     0.605000000000     0.265570000000    -0.189428   
N212     N      0.762910000000     0.670790000000     0.265570000000    -0.189519   
N213     N      0.012890000000     0.762910000000     0.173380000000    -0.193359   
N214     N      0.012900000000     0.762910000000     0.107750000000    -0.194534   
N215     N      0.012900000000     0.762900000000     0.423390000000    -0.194735   
N216     N      0.012890000000     0.762900000000     0.357760000000    -0.193371   
N217     N      0.512890000000     0.012900000000     0.173390000000    -0.19475    
N218     N      0.512900000000     0.012890000000     0.107760000000    -0.193154   
N219     N      0.512890000000     0.012900000000     0.357760000000    -0.194751   
N220     N      0.512890000000     0.012890000000     0.423390000000    -0.193351   
N221     N      0.012890000000     0.920790000000     0.265570000000    -0.191771   
N222     N      0.512890000000     0.855010000000     0.265570000000    -0.189539   
N223     N      0.012890000000     0.605010000000     0.265570000000    -0.19238    
N224     N      0.512890000000     0.670790000000     0.265570000000    -0.189598   
N225     N      0.855010000000     0.762900000000     0.515570000000    -0.18942    
N226     N      0.920800000000     0.762910000000     0.515570000000    -0.188907   
N227     N      0.605010000000     0.762910000000     0.515570000000    -0.189455   
N228     N      0.670800000000     0.762900000000     0.515580000000    -0.189549   
N229     N      0.920780000000     0.512890000000     0.515570000000    -0.18896    
N230     N      0.855000000000     0.512890000000     0.515580000000    -0.189529   
N231     N      0.605000000000     0.512890000000     0.515570000000    -0.189556   
N232     N      0.670780000000     0.512890000000     0.515570000000    -0.18964    
N233     N      0.762910000000     0.762900000000     0.673400000000    -0.190569   
N234     N      0.762910000000     0.762900000000     0.607760000000    -0.190543   
N235     N      0.762910000000     0.762890000000     0.857760000000    -0.190488   
N236     N      0.762900000000     0.762900000000     0.923400000000    -0.189571   
N237     N      0.762900000000     0.012890000000     0.607760000000    -0.193367   
N238     N      0.762900000000     0.012890000000     0.673400000000    -0.194722   
N239     N      0.762900000000     0.012890000000     0.923390000000    -0.192368   
N240     N      0.762900000000     0.512900000000     0.857750000000    -0.190485   
N241     N      0.762910000000     0.920790000000     0.765580000000    -0.18886    
N242     N      0.762910000000     0.855000000000     0.765580000000    -0.189391   
N243     N      0.762910000000     0.605000000000     0.765570000000    -0.189398   
N244     N      0.762910000000     0.670790000000     0.765570000000    -0.189497   
N245     N      0.012890000000     0.762910000000     0.673380000000    -0.1934     
N246     N      0.012900000000     0.762910000000     0.607750000000    -0.194624   
N247     N      0.012900000000     0.762900000000     0.923390000000    -0.193727   
N248     N      0.012890000000     0.762900000000     0.857760000000    -0.193276   
N249     N      0.512890000000     0.012900000000     0.673390000000    -0.194758   
N250     N      0.512900000000     0.012890000000     0.607760000000    -0.193347   
N251     N      0.512890000000     0.012900000000     0.857760000000    -0.194652   
N252     N      0.512890000000     0.012890000000     0.923390000000    -0.192356   
N253     N      0.012890000000     0.920790000000     0.765570000000    -0.191726   
N254     N      0.512890000000     0.855010000000     0.765570000000    -0.189503   
N255     N      0.012890000000     0.605010000000     0.765570000000    -0.192334   
N256     N      0.512890000000     0.670790000000     0.765570000000    -0.189563   
O1       O      0.486700000000     0.015600000000     0.310470000000    -0.554547   
O2       O      0.486700000000     0.510200000000     0.220670000000    -0.554364   
O3       O      0.486690000000     0.468220000000     0.267610000000    -0.555156   
O4       O      0.486690000000     0.057580000000     0.263530000000    -0.553684   
O5       O      0.039100000000     0.057580000000     0.267610000000    -0.550742   
O6       O      0.039100000000     0.468220000000     0.263530000000    -0.552208   
O7       O      0.039080000000     0.015600000000     0.220670000000    -0.55179    
O8       O      0.039080000000     0.510200000000     0.310470000000    -0.551374   
O9       O      0.039080000000     0.260210000000     0.310470000000    -0.551423   
O10      O      0.039080000000     0.265590000000     0.220670000000    -0.551426   
O11      O      0.039100000000     0.307590000000     0.267600000000    -0.552133   
O12      O      0.039100000000     0.218220000000     0.263540000000    -0.552212   
O13      O      0.486690000000     0.218220000000     0.267600000000    -0.555177   
O14      O      0.486690000000     0.307590000000     0.263540000000    -0.555078   
O15      O      0.486700000000     0.260220000000     0.220670000000    -0.554319   
O16      O      0.486700000000     0.265590000000     0.310470000000    -0.554301   
O17      O      0.289060000000     0.509930000000     0.310460000000    -0.554158   
O18      O      0.289060000000     0.015850000000     0.220690000000    -0.554273   
O19      O      0.289080000000     0.057560000000     0.267960000000    -0.553278   
O20      O      0.289080000000     0.468220000000     0.263200000000    -0.554793   
O21      O      0.236730000000     0.468220000000     0.267960000000    -0.554693   
O22      O      0.236730000000     0.057560000000     0.263190000000    -0.553177   
O23      O      0.236750000000     0.509920000000     0.220690000000    -0.554076   
O24      O      0.236750000000     0.015860000000     0.310460000000    -0.554541   
O25      O      0.236750000000     0.259940000000     0.310460000000    -0.554219   
O26      O      0.236750000000     0.265850000000     0.220690000000    -0.553957   
O27      O      0.236730000000     0.218220000000     0.263200000000    -0.554737   
O28      O      0.236730000000     0.307560000000     0.267950000000    -0.554674   
O29      O      0.289080000000     0.307560000000     0.263210000000    -0.554801   
O30      O      0.289080000000     0.218220000000     0.267950000000    -0.554863   
O31      O      0.289070000000     0.259940000000     0.220690000000    -0.553981   
O32      O      0.289060000000     0.265840000000     0.310460000000    -0.554334   
O33      O      0.510190000000     0.039080000000     0.470670000000    -0.551448   
O34      O      0.015600000000     0.039080000000     0.060470000000    -0.549502   
O35      O      0.057580000000     0.039100000000     0.513530000000    -0.550484   
O36      O      0.468210000000     0.039100000000     0.017610000000    -0.551985   
O37      O      0.468210000000     0.486690000000     0.513530000000    -0.555178   
O38      O      0.057570000000     0.486690000000     0.017610000000    -0.553603   
O39      O      0.510190000000     0.486700000000     0.060470000000    -0.552166   
O40      O      0.015590000000     0.486700000000     0.470670000000    -0.554681   
O41      O      0.015870000000     0.236750000000     0.470690000000    -0.554475   
O42      O      0.509940000000     0.236750000000     0.060450000000    -0.55209    
O43      O      0.468240000000     0.236730000000     0.513190000000    -0.554939   
O44      O      0.057570000000     0.236730000000     0.017950000000    -0.55323    
O45      O      0.057570000000     0.289080000000     0.513190000000    -0.553211   
O46      O      0.468240000000     0.289080000000     0.017950000000    -0.554672   
O47      O      0.015870000000     0.289060000000     0.060450000000    -0.552368   
O48      O      0.509940000000     0.289060000000     0.470690000000    -0.554131   
O49      O      0.260200000000     0.039080000000     0.470680000000    -0.55142    
O50      O      0.265580000000     0.039080000000     0.060480000000    -0.549418   
O51      O      0.307580000000     0.039090000000     0.513550000000    -0.55224    
O52      O      0.218210000000     0.039090000000     0.017610000000    -0.552198   
O53      O      0.218210000000     0.486680000000     0.513550000000    -0.555118   
O54      O      0.307580000000     0.486680000000     0.017610000000    -0.554838   
O55      O      0.260200000000     0.486700000000     0.060470000000    -0.552468   
O56      O      0.265580000000     0.486700000000     0.470680000000    -0.554516   
O57      O      0.265850000000     0.289060000000     0.470690000000    -0.554039   
O58      O      0.259950000000     0.289060000000     0.060460000000    -0.551993   
O59      O      0.307570000000     0.289080000000     0.517950000000    -0.554716   
O60      O      0.218230000000     0.289080000000     0.013210000000    -0.554957   
O61      O      0.218230000000     0.236730000000     0.517950000000    -0.55495    
O62      O      0.307570000000     0.236730000000     0.013200000000    -0.555039   
O63      O      0.265860000000     0.236740000000     0.060460000000    -0.552066   
O64      O      0.259950000000     0.236740000000     0.470690000000    -0.554045   
O65      O      0.486700000000     0.015600000000     0.810470000000    -0.554286   
O66      O      0.486700000000     0.510200000000     0.720670000000    -0.554413   
O67      O      0.486690000000     0.468220000000     0.767610000000    -0.555075   
O68      O      0.486690000000     0.057580000000     0.763530000000    -0.553633   
O69      O      0.039100000000     0.057580000000     0.767610000000    -0.550658   
O70      O      0.039100000000     0.468220000000     0.763530000000    -0.552168   
O71      O      0.039080000000     0.015600000000     0.720670000000    -0.551855   
O72      O      0.039080000000     0.510200000000     0.810470000000    -0.551125   
O73      O      0.039080000000     0.260210000000     0.810470000000    -0.551175   
O74      O      0.039080000000     0.265590000000     0.720670000000    -0.551491   
O75      O      0.039100000000     0.307590000000     0.767600000000    -0.552046   
O76      O      0.039100000000     0.218220000000     0.763540000000    -0.552176   
O77      O      0.486690000000     0.218220000000     0.767600000000    -0.555081   
O78      O      0.486690000000     0.307590000000     0.763540000000    -0.555031   
O79      O      0.486700000000     0.260220000000     0.720670000000    -0.554375   
O80      O      0.486700000000     0.265590000000     0.810470000000    -0.554043   
O81      O      0.289060000000     0.509930000000     0.810460000000    -0.553915   
O82      O      0.289060000000     0.015850000000     0.720690000000    -0.554316   
O83      O      0.289080000000     0.057560000000     0.767950000000    -0.553214   
O84      O      0.289080000000     0.468220000000     0.763200000000    -0.554748   
O85      O      0.236730000000     0.468220000000     0.767960000000    -0.554598   
O86      O      0.236730000000     0.057560000000     0.763190000000    -0.553135   
O87      O      0.236750000000     0.509920000000     0.720690000000    -0.554125   
O88      O      0.236750000000     0.015860000000     0.810460000000    -0.554286   
O89      O      0.236750000000     0.259940000000     0.810460000000    -0.553869   
O90      O      0.236750000000     0.265850000000     0.720690000000    -0.554016   
O91      O      0.236730000000     0.218220000000     0.763200000000    -0.554701   
O92      O      0.236730000000     0.307560000000     0.767950000000    -0.554579   
O93      O      0.289080000000     0.307560000000     0.763210000000    -0.554752   
O94      O      0.289080000000     0.218220000000     0.767950000000    -0.554756   
O95      O      0.289070000000     0.259940000000     0.720690000000    -0.55404    
O96      O      0.289060000000     0.265840000000     0.810460000000    -0.553985   
O97      O      0.510190000000     0.039080000000     0.970670000000    -0.542126   
O98      O      0.015600000000     0.039080000000     0.560470000000    -0.551585   
O99      O      0.057580000000     0.039100000000     0.013530000000    -0.550664   
O100     O      0.468210000000     0.039100000000     0.517610000000    -0.552105   
O101     O      0.468210000000     0.486690000000     0.013530000000    -0.55535    
O102     O      0.057570000000     0.486690000000     0.517610000000    -0.553735   
O103     O      0.510190000000     0.486700000000     0.560470000000    -0.554263   
O104     O      0.015590000000     0.486700000000     0.970670000000    -0.545322   
O105     O      0.015870000000     0.236750000000     0.970690000000    -0.545123   
O106     O      0.509940000000     0.236750000000     0.560450000000    -0.55427    
O107     O      0.468240000000     0.236730000000     0.013190000000    -0.555109   
O108     O      0.057570000000     0.236730000000     0.517950000000    -0.553357   
O109     O      0.057570000000     0.289080000000     0.013190000000    -0.553382   
O110     O      0.468240000000     0.289080000000     0.517950000000    -0.5548     
O111     O      0.015870000000     0.289060000000     0.560450000000    -0.554548   
O112     O      0.509940000000     0.289060000000     0.970690000000    -0.544779   
O113     O      0.260200000000     0.039080000000     0.970680000000    -0.54207    
O114     O      0.265580000000     0.039080000000     0.560480000000    -0.55148    
O115     O      0.307580000000     0.039090000000     0.013550000000    -0.552405   
O116     O      0.218210000000     0.039090000000     0.517610000000    -0.552302   
O117     O      0.218210000000     0.486680000000     0.013550000000    -0.555256   
O118     O      0.307580000000     0.486680000000     0.517600000000    -0.554976   
O119     O      0.260200000000     0.486700000000     0.560470000000    -0.554412   
O120     O      0.265580000000     0.486700000000     0.970680000000    -0.544999   
O121     O      0.265850000000     0.289060000000     0.970690000000    -0.544646   
O122     O      0.259950000000     0.289060000000     0.560460000000    -0.554172   
O123     O      0.307570000000     0.289080000000     0.017950000000    -0.554599   
O124     O      0.218230000000     0.289080000000     0.513210000000    -0.554796   
O125     O      0.218230000000     0.236730000000     0.017950000000    -0.554862   
O126     O      0.307570000000     0.236730000000     0.513200000000    -0.554841   
O127     O      0.265860000000     0.236740000000     0.560460000000    -0.554187   
O128     O      0.259950000000     0.236740000000     0.970700000000    -0.544818   
O129     O      0.486700000000     0.515600000000     0.310470000000    -0.554255   
O130     O      0.486700000000     0.010200000000     0.220670000000    -0.55576    
O131     O      0.486690000000     0.968220000000     0.267610000000    -0.548419   
O132     O      0.486690000000     0.557580000000     0.263530000000    -0.55517    
O133     O      0.039100000000     0.557580000000     0.267610000000    -0.552213   
O134     O      0.039100000000     0.968220000000     0.263530000000    -0.545493   
O135     O      0.039080000000     0.515600000000     0.220670000000    -0.551492   
O136     O      0.039080000000     0.010200000000     0.310470000000    -0.552785   
O137     O      0.039080000000     0.760210000000     0.310470000000    -0.551435   
O138     O      0.039080000000     0.765590000000     0.220670000000    -0.551443   
O139     O      0.039100000000     0.807580000000     0.267600000000    -0.552169   
O140     O      0.039100000000     0.718220000000     0.263540000000    -0.552266   
O141     O      0.486690000000     0.718220000000     0.267600000000    -0.555216   
O142     O      0.486690000000     0.807580000000     0.263540000000    -0.555119   
O143     O      0.486700000000     0.760210000000     0.220670000000    -0.554286   
O144     O      0.486700000000     0.765590000000     0.310470000000    -0.554307   
O145     O      0.289060000000     0.009930000000     0.310460000000    -0.555575   
O146     O      0.289060000000     0.515850000000     0.220690000000    -0.553994   
O147     O      0.289080000000     0.557560000000     0.267960000000    -0.55476    
O148     O      0.289080000000     0.968220000000     0.263200000000    -0.548059   
O149     O      0.236730000000     0.968220000000     0.267960000000    -0.547961   
O150     O      0.236730000000     0.557560000000     0.263190000000    -0.554659   
O151     O      0.236750000000     0.009920000000     0.220690000000    -0.555491   
O152     O      0.236750000000     0.515860000000     0.310460000000    -0.554261   
O153     O      0.236750000000     0.759940000000     0.310460000000    -0.554199   
O154     O      0.236750000000     0.765850000000     0.220690000000    -0.553951   
O155     O      0.236730000000     0.718220000000     0.263200000000    -0.554739   
O156     O      0.236730000000     0.807560000000     0.267950000000    -0.55461    
O157     O      0.289080000000     0.807560000000     0.263210000000    -0.554737   
O158     O      0.289080000000     0.718220000000     0.267950000000    -0.554865   
O159     O      0.289070000000     0.759940000000     0.220690000000    -0.553945   
O160     O      0.289060000000     0.765840000000     0.310460000000    -0.554314   
O161     O      0.510190000000     0.539080000000     0.470670000000    -0.554389   
O162     O      0.015600000000     0.539080000000     0.060470000000    -0.552415   
O163     O      0.057580000000     0.539100000000     0.513530000000    -0.553446   
O164     O      0.468210000000     0.539100000000     0.017610000000    -0.554949   
O165     O      0.468210000000     0.986680000000     0.513530000000    -0.547847   
O166     O      0.057570000000     0.986680000000     0.017610000000    -0.546313   
O167     O      0.510190000000     0.986700000000     0.060470000000    -0.545008   
O168     O      0.015590000000     0.986700000000     0.470670000000    -0.54752    
O169     O      0.015870000000     0.736750000000     0.470690000000    -0.554462   
O170     O      0.509940000000     0.736750000000     0.060450000000    -0.552076   
O171     O      0.468240000000     0.736730000000     0.513190000000    -0.554817   
O172     O      0.057570000000     0.736730000000     0.017950000000    -0.553109   
O173     O      0.057570000000     0.789080000000     0.513190000000    -0.553292   
O174     O      0.468240000000     0.789080000000     0.017950000000    -0.554753   
O175     O      0.015870000000     0.789060000000     0.060450000000    -0.552326   
O176     O      0.509940000000     0.789060000000     0.470690000000    -0.554092   
O177     O      0.260200000000     0.539080000000     0.470680000000    -0.554328   
O178     O      0.265580000000     0.539080000000     0.060480000000    -0.552314   
O179     O      0.307580000000     0.539100000000     0.513550000000    -0.554921   
O180     O      0.218210000000     0.539090000000     0.017610000000    -0.555058   
O181     O      0.218210000000     0.986680000000     0.513550000000    -0.548003   
O182     O      0.307580000000     0.986680000000     0.017610000000    -0.547808   
O183     O      0.260200000000     0.986700000000     0.060470000000    -0.545326   
O184     O      0.265580000000     0.986700000000     0.470680000000    -0.547352   
O185     O      0.265850000000     0.789060000000     0.470690000000    -0.553955   
O186     O      0.259950000000     0.789060000000     0.060460000000    -0.551985   
O187     O      0.307570000000     0.789080000000     0.517950000000    -0.55464    
O188     O      0.218230000000     0.789080000000     0.013210000000    -0.554884   
O189     O      0.218230000000     0.736730000000     0.517950000000    -0.554909   
O190     O      0.307570000000     0.736730000000     0.013200000000    -0.554997   
O191     O      0.265860000000     0.736750000000     0.060460000000    -0.552219   
O192     O      0.259950000000     0.736740000000     0.470690000000    -0.554005   
O193     O      0.486700000000     0.515610000000     0.810470000000    -0.553959   
O194     O      0.486700000000     0.010200000000     0.720670000000    -0.555817   
O195     O      0.486690000000     0.968220000000     0.767610000000    -0.548331   
O196     O      0.486690000000     0.557580000000     0.763530000000    -0.555101   
O197     O      0.039100000000     0.557580000000     0.767610000000    -0.552129   
O198     O      0.039100000000     0.968220000000     0.763530000000    -0.545457   
O199     O      0.039080000000     0.515600000000     0.720670000000    -0.551556   
O200     O      0.039080000000     0.010200000000     0.810470000000    -0.552535   
O201     O      0.039080000000     0.760210000000     0.810470000000    -0.551188   
O202     O      0.039080000000     0.765590000000     0.720670000000    -0.551509   
O203     O      0.039100000000     0.807580000000     0.767600000000    -0.552082   
O204     O      0.039100000000     0.718220000000     0.763540000000    -0.55223    
O205     O      0.486690000000     0.718220000000     0.767600000000    -0.555119   
O206     O      0.486690000000     0.807580000000     0.763540000000    -0.555072   
O207     O      0.486700000000     0.760210000000     0.720670000000    -0.554342   
O208     O      0.486700000000     0.765590000000     0.810470000000    -0.554049   
O209     O      0.289060000000     0.009930000000     0.810460000000    -0.555333   
O210     O      0.289060000000     0.515850000000     0.720690000000    -0.554035   
O211     O      0.289080000000     0.557560000000     0.767950000000    -0.554696   
O212     O      0.289080000000     0.968220000000     0.763200000000    -0.548018   
O213     O      0.236730000000     0.968220000000     0.767960000000    -0.547871   
O214     O      0.236730000000     0.557560000000     0.763190000000    -0.554617   
O215     O      0.236750000000     0.009920000000     0.720690000000    -0.555542   
O216     O      0.236750000000     0.515860000000     0.810460000000    -0.554006   
O217     O      0.236750000000     0.759940000000     0.810460000000    -0.55385    
O218     O      0.236750000000     0.765850000000     0.720690000000    -0.55401    
O219     O      0.236730000000     0.718220000000     0.763200000000    -0.554703   
O220     O      0.236730000000     0.807560000000     0.767950000000    -0.554515   
O221     O      0.289080000000     0.807560000000     0.763210000000    -0.554688   
O222     O      0.289080000000     0.718220000000     0.767950000000    -0.554757   
O223     O      0.289070000000     0.759940000000     0.720690000000    -0.554004   
O224     O      0.289060000000     0.765840000000     0.810460000000    -0.553965   
O225     O      0.510190000000     0.539080000000     0.970670000000    -0.545035   
O226     O      0.015600000000     0.539080000000     0.560470000000    -0.554511   
O227     O      0.057580000000     0.539100000000     0.013530000000    -0.553618   
O228     O      0.468210000000     0.539100000000     0.517610000000    -0.55508    
O229     O      0.468210000000     0.986680000000     0.013530000000    -0.54804    
O230     O      0.057570000000     0.986680000000     0.517610000000    -0.546423   
O231     O      0.510190000000     0.986700000000     0.560470000000    -0.547085   
O232     O      0.015590000000     0.986700000000     0.970670000000    -0.538217   
O233     O      0.015870000000     0.736750000000     0.970690000000    -0.545111   
O234     O      0.509940000000     0.736750000000     0.560450000000    -0.554256   
O235     O      0.468240000000     0.736730000000     0.013190000000    -0.554989   
O236     O      0.057570000000     0.736730000000     0.517950000000    -0.553235   
O237     O      0.057570000000     0.789080000000     0.013190000000    -0.553462   
O238     O      0.468240000000     0.789080000000     0.517950000000    -0.55488    
O239     O      0.015870000000     0.789060000000     0.560450000000    -0.554505   
O240     O      0.509940000000     0.789060000000     0.970690000000    -0.544749   
O241     O      0.260200000000     0.539080000000     0.970680000000    -0.544947   
O242     O      0.265580000000     0.539080000000     0.560480000000    -0.554389   
O243     O      0.307580000000     0.539100000000     0.013550000000    -0.555079   
O244     O      0.218210000000     0.539090000000     0.517610000000    -0.555171   
O245     O      0.218210000000     0.986680000000     0.013550000000    -0.548162   
O246     O      0.307580000000     0.986680000000     0.517600000000    -0.547926   
O247     O      0.260200000000     0.986700000000     0.560470000000    -0.54725    
O248     O      0.265580000000     0.986700000000     0.970680000000    -0.53789    
O249     O      0.265850000000     0.789060000000     0.970690000000    -0.544571   
O250     O      0.259950000000     0.789060000000     0.560460000000    -0.554162   
O251     O      0.307570000000     0.789080000000     0.017950000000    -0.554524   
O252     O      0.218230000000     0.789080000000     0.513210000000    -0.554721   
O253     O      0.218230000000     0.736730000000     0.017950000000    -0.554823   
O254     O      0.307570000000     0.736730000000     0.513200000000    -0.554799   
O255     O      0.265860000000     0.736750000000     0.560460000000    -0.554341   
O256     O      0.259950000000     0.736740000000     0.970700000000    -0.544779   
O257     O      0.986700000000     0.015600000000     0.310470000000    -0.547431   
O258     O      0.986700000000     0.510200000000     0.220670000000    -0.547219   
O259     O      0.986690000000     0.468220000000     0.267610000000    -0.548071   
O260     O      0.986690000000     0.057580000000     0.263530000000    -0.546605   
O261     O      0.539100000000     0.057580000000     0.267610000000    -0.553576   
O262     O      0.539100000000     0.468220000000     0.263530000000    -0.555049   
O263     O      0.539080000000     0.015600000000     0.220670000000    -0.554669   
O264     O      0.539080000000     0.510200000000     0.310470000000    -0.554266   
O265     O      0.539080000000     0.260210000000     0.310470000000    -0.554305   
O266     O      0.539080000000     0.265590000000     0.220670000000    -0.554309   
O267     O      0.539100000000     0.307590000000     0.267600000000    -0.554979   
O268     O      0.539100000000     0.218220000000     0.263540000000    -0.555056   
O269     O      0.986690000000     0.218220000000     0.267600000000    -0.548086   
O270     O      0.986690000000     0.307590000000     0.263540000000    -0.54798    
O271     O      0.986700000000     0.260220000000     0.220670000000    -0.547185   
O272     O      0.986700000000     0.265590000000     0.310470000000    -0.54717    
O273     O      0.789060000000     0.509930000000     0.310460000000    -0.55423    
O274     O      0.789060000000     0.015850000000     0.220690000000    -0.554346   
O275     O      0.789080000000     0.057560000000     0.267960000000    -0.553252   
O276     O      0.789080000000     0.468220000000     0.263200000000    -0.554765   
O277     O      0.736730000000     0.468220000000     0.267960000000    -0.554679   
O278     O      0.736730000000     0.057560000000     0.263190000000    -0.553163   
O279     O      0.736750000000     0.509920000000     0.220690000000    -0.553948   
O280     O      0.736750000000     0.015860000000     0.310460000000    -0.554416   
O281     O      0.736750000000     0.259940000000     0.310460000000    -0.55414    
O282     O      0.736750000000     0.265850000000     0.220690000000    -0.553946   
O283     O      0.736730000000     0.218220000000     0.263200000000    -0.554729   
O284     O      0.736730000000     0.307560000000     0.267950000000    -0.554668   
O285     O      0.789080000000     0.307560000000     0.263210000000    -0.554752   
O286     O      0.789080000000     0.218220000000     0.267950000000    -0.554812   
O287     O      0.789070000000     0.259940000000     0.220690000000    -0.553917   
O288     O      0.789070000000     0.265840000000     0.310460000000    -0.554071   
O289     O      0.010190000000     0.039080000000     0.470670000000    -0.552817   
O290     O      0.515600000000     0.039080000000     0.060470000000    -0.549253   
O291     O      0.557570000000     0.039100000000     0.513530000000    -0.552094   
O292     O      0.968210000000     0.039100000000     0.017610000000    -0.545203   
O293     O      0.968210000000     0.486690000000     0.513530000000    -0.548439   
O294     O      0.557570000000     0.486690000000     0.017610000000    -0.555061   
O295     O      0.010190000000     0.486700000000     0.060470000000    -0.553585   
O296     O      0.515590000000     0.486700000000     0.470670000000    -0.55438    
O297     O      0.515870000000     0.236750000000     0.470690000000    -0.554236   
O298     O      0.009930000000     0.236750000000     0.060450000000    -0.553429   
O299     O      0.968230000000     0.236730000000     0.513190000000    -0.548123   
O300     O      0.557570000000     0.236730000000     0.017950000000    -0.55476    
O301     O      0.557570000000     0.289080000000     0.513190000000    -0.554764   
O302     O      0.968230000000     0.289080000000     0.017950000000    -0.547868   
O303     O      0.515860000000     0.289060000000     0.060450000000    -0.552171   
O304     O      0.009940000000     0.289060000000     0.470690000000    -0.555511   
O305     O      0.760210000000     0.039080000000     0.470680000000    -0.551419   
O306     O      0.765580000000     0.039080000000     0.060480000000    -0.549409   
O307     O      0.807580000000     0.039090000000     0.513550000000    -0.552166   
O308     O      0.718210000000     0.039090000000     0.017610000000    -0.55222    
O309     O      0.718210000000     0.486680000000     0.513550000000    -0.555148   
O310     O      0.807580000000     0.486680000000     0.017610000000    -0.554754   
O311     O      0.760210000000     0.486700000000     0.060470000000    -0.552484   
O312     O      0.765580000000     0.486700000000     0.470680000000    -0.554512   
O313     O      0.765850000000     0.289060000000     0.470690000000    -0.554019   
O314     O      0.759950000000     0.289060000000     0.060460000000    -0.551975   
O315     O      0.807570000000     0.289080000000     0.517950000000    -0.554647   
O316     O      0.718230000000     0.289080000000     0.013210000000    -0.554967   
O317     O      0.718230000000     0.236730000000     0.517950000000    -0.554957   
O318     O      0.807570000000     0.236730000000     0.013200000000    -0.554969   
O319     O      0.765860000000     0.236740000000     0.060460000000    -0.552052   
O320     O      0.759950000000     0.236740000000     0.470690000000    -0.554021   
O321     O      0.986700000000     0.015600000000     0.810470000000    -0.547206   
O322     O      0.986700000000     0.510200000000     0.720670000000    -0.547295   
O323     O      0.986690000000     0.468220000000     0.767610000000    -0.548006   
O324     O      0.986690000000     0.057580000000     0.763530000000    -0.546582   
O325     O      0.539100000000     0.057580000000     0.767610000000    -0.553482   
O326     O      0.539100000000     0.468220000000     0.763530000000    -0.555003   
O327     O      0.539080000000     0.015600000000     0.720670000000    -0.554725   
O328     O      0.539080000000     0.510200000000     0.810470000000    -0.553997   
O329     O      0.539080000000     0.260210000000     0.810470000000    -0.554046   
O330     O      0.539080000000     0.265590000000     0.720670000000    -0.554364   
O331     O      0.539100000000     0.307590000000     0.767600000000    -0.554882   
O332     O      0.539100000000     0.218220000000     0.763540000000    -0.555009   
O333     O      0.986690000000     0.218220000000     0.767600000000    -0.548017   
O334     O      0.986690000000     0.307590000000     0.763540000000    -0.54796    
O335     O      0.986700000000     0.260220000000     0.720670000000    -0.547263   
O336     O      0.986700000000     0.265590000000     0.810470000000    -0.546946   
O337     O      0.789060000000     0.509930000000     0.810460000000    -0.553989   
O338     O      0.789060000000     0.015850000000     0.720690000000    -0.554388   
O339     O      0.789080000000     0.057560000000     0.767950000000    -0.553188   
O340     O      0.789080000000     0.468220000000     0.763200000000    -0.554721   
O341     O      0.736730000000     0.468220000000     0.767960000000    -0.554584   
O342     O      0.736730000000     0.057560000000     0.763190000000    -0.553122   
O343     O      0.736750000000     0.509920000000     0.720690000000    -0.553998   
O344     O      0.736750000000     0.015860000000     0.810460000000    -0.554161   
O345     O      0.736750000000     0.259940000000     0.810460000000    -0.553791   
O346     O      0.736750000000     0.265850000000     0.720690000000    -0.554005   
O347     O      0.736730000000     0.218220000000     0.763200000000    -0.554693   
O348     O      0.736730000000     0.307560000000     0.767950000000    -0.554572   
O349     O      0.789080000000     0.307560000000     0.763210000000    -0.554704   
O350     O      0.789080000000     0.218220000000     0.767950000000    -0.554705   
O351     O      0.789070000000     0.259940000000     0.720690000000    -0.553976   
O352     O      0.789070000000     0.265840000000     0.810460000000    -0.553724   
O353     O      0.010190000000     0.039080000000     0.970670000000    -0.543481   
O354     O      0.515600000000     0.039080000000     0.560470000000    -0.551336   
O355     O      0.557570000000     0.039100000000     0.013530000000    -0.552274   
O356     O      0.968210000000     0.039100000000     0.517610000000    -0.545334   
O357     O      0.968210000000     0.486690000000     0.013530000000    -0.548601   
O358     O      0.557570000000     0.486690000000     0.517610000000    -0.555192   
O359     O      0.010190000000     0.486700000000     0.560470000000    -0.55568    
O360     O      0.515590000000     0.486700000000     0.970670000000    -0.545027   
O361     O      0.515870000000     0.236750000000     0.970690000000    -0.54489    
O362     O      0.009930000000     0.236750000000     0.560450000000    -0.555606   
O363     O      0.968230000000     0.236730000000     0.013190000000    -0.548284   
O364     O      0.557570000000     0.236730000000     0.517950000000    -0.554887   
O365     O      0.557570000000     0.289080000000     0.013190000000    -0.554936   
O366     O      0.968230000000     0.289080000000     0.517950000000    -0.548005   
O367     O      0.515860000000     0.289060000000     0.560450000000    -0.554352   
O368     O      0.009940000000     0.289060000000     0.970690000000    -0.546148   
O369     O      0.760210000000     0.039080000000     0.970680000000    -0.542096   
O370     O      0.765580000000     0.039080000000     0.560480000000    -0.551466   
O371     O      0.807580000000     0.039090000000     0.013550000000    -0.552332   
O372     O      0.718210000000     0.039090000000     0.517610000000    -0.552323   
O373     O      0.718210000000     0.486680000000     0.013550000000    -0.555287   
O374     O      0.807580000000     0.486680000000     0.517600000000    -0.554892   
O375     O      0.760210000000     0.486700000000     0.560470000000    -0.554423   
O376     O      0.765580000000     0.486700000000     0.970680000000    -0.545023   
O377     O      0.765850000000     0.289060000000     0.970690000000    -0.544654   
O378     O      0.759950000000     0.289060000000     0.560460000000    -0.554148   
O379     O      0.807570000000     0.289080000000     0.017950000000    -0.55453    
O380     O      0.718230000000     0.289080000000     0.513210000000    -0.554804   
O381     O      0.718230000000     0.236730000000     0.017950000000    -0.554871   
O382     O      0.807570000000     0.236730000000     0.513200000000    -0.554772   
O383     O      0.765860000000     0.236740000000     0.560460000000    -0.554167   
O384     O      0.759950000000     0.236740000000     0.970700000000    -0.544821   
O385     O      0.986700000000     0.515610000000     0.310470000000    -0.547086   
O386     O      0.986700000000     0.010200000000     0.220670000000    -0.548635   
O387     O      0.986690000000     0.968220000000     0.267610000000    -0.541371   
O388     O      0.986690000000     0.557580000000     0.263530000000    -0.548056   
O389     O      0.539100000000     0.557580000000     0.267610000000    -0.555062   
O390     O      0.539100000000     0.968220000000     0.263530000000    -0.548315   
O391     O      0.539080000000     0.515600000000     0.220670000000    -0.554378   
O392     O      0.539080000000     0.010200000000     0.310470000000    -0.555664   
O393     O      0.539080000000     0.760210000000     0.310470000000    -0.554316   
O394     O      0.539080000000     0.765590000000     0.220670000000    -0.554325   
O395     O      0.539100000000     0.807580000000     0.267600000000    -0.555011   
O396     O      0.539100000000     0.718220000000     0.263540000000    -0.555109   
O397     O      0.986690000000     0.718220000000     0.267600000000    -0.548124   
O398     O      0.986690000000     0.807580000000     0.263540000000    -0.548032   
O399     O      0.986700000000     0.760210000000     0.220670000000    -0.547155   
O400     O      0.986700000000     0.765590000000     0.310470000000    -0.54718    
O401     O      0.789060000000     0.009930000000     0.310460000000    -0.555649   
O402     O      0.789060000000     0.515850000000     0.220690000000    -0.554066   
O403     O      0.789080000000     0.557560000000     0.267960000000    -0.554733   
O404     O      0.789080000000     0.968220000000     0.263200000000    -0.548038   
O405     O      0.736730000000     0.968220000000     0.267960000000    -0.547948   
O406     O      0.736730000000     0.557560000000     0.263190000000    -0.554645   
O407     O      0.736750000000     0.009920000000     0.220690000000    -0.555364   
O408     O      0.736750000000     0.515860000000     0.310460000000    -0.554133   
O409     O      0.736750000000     0.759940000000     0.310460000000    -0.554121   
O410     O      0.736750000000     0.765850000000     0.220690000000    -0.55394    
O411     O      0.736730000000     0.718220000000     0.263200000000    -0.554731   
O412     O      0.736730000000     0.807560000000     0.267950000000    -0.554604   
O413     O      0.789080000000     0.807560000000     0.263210000000    -0.554688   
O414     O      0.789080000000     0.718220000000     0.267950000000    -0.554814   
O415     O      0.789070000000     0.759940000000     0.220690000000    -0.553881   
O416     O      0.789070000000     0.765840000000     0.310460000000    -0.554052   
O417     O      0.010190000000     0.539080000000     0.470670000000    -0.55575    
O418     O      0.515600000000     0.539080000000     0.060470000000    -0.552175   
O419     O      0.557570000000     0.539100000000     0.513530000000    -0.555068   
O420     O      0.968210000000     0.539100000000     0.017610000000    -0.548142   
O421     O      0.968210000000     0.986680000000     0.513530000000    -0.541158   
O422     O      0.557570000000     0.986680000000     0.017610000000    -0.547752   
O423     O      0.010190000000     0.986700000000     0.060470000000    -0.546445   
O424     O      0.515590000000     0.986700000000     0.470670000000    -0.547197   
O425     O      0.515870000000     0.736750000000     0.470690000000    -0.554226   
O426     O      0.009930000000     0.736750000000     0.060450000000    -0.553414   
O427     O      0.968230000000     0.736730000000     0.513190000000    -0.548003   
O428     O      0.557570000000     0.736730000000     0.017950000000    -0.55464    
O429     O      0.557570000000     0.789080000000     0.513190000000    -0.554844   
O430     O      0.968230000000     0.789080000000     0.017950000000    -0.547955   
O431     O      0.515860000000     0.789060000000     0.060450000000    -0.552131   
O432     O      0.009940000000     0.789060000000     0.470690000000    -0.555469   
O433     O      0.760210000000     0.539080000000     0.470680000000    -0.554339   
O434     O      0.765580000000     0.539080000000     0.060480000000    -0.552315   
O435     O      0.807580000000     0.539100000000     0.513550000000    -0.554837   
O436     O      0.718210000000     0.539090000000     0.017610000000    -0.55509    
O437     O      0.718210000000     0.986680000000     0.513550000000    -0.54801    
O438     O      0.807580000000     0.986680000000     0.017610000000    -0.547751   
O439     O      0.760200000000     0.986700000000     0.060470000000    -0.545314   
O440     O      0.765580000000     0.986700000000     0.470680000000    -0.547357   
O441     O      0.765850000000     0.789060000000     0.470690000000    -0.553936   
O442     O      0.759950000000     0.789060000000     0.060460000000    -0.551966   
O443     O      0.807570000000     0.789080000000     0.517950000000    -0.554571   
O444     O      0.718230000000     0.789080000000     0.013210000000    -0.554893   
O445     O      0.718230000000     0.736730000000     0.517950000000    -0.554917   
O446     O      0.807570000000     0.736730000000     0.013200000000    -0.554928   
O447     O      0.765860000000     0.736750000000     0.060460000000    -0.552205   
O448     O      0.759950000000     0.736740000000     0.470690000000    -0.553981   
O449     O      0.986700000000     0.515610000000     0.810470000000    -0.546862   
O450     O      0.986700000000     0.010200000000     0.720670000000    -0.548713   
O451     O      0.986690000000     0.968220000000     0.767610000000    -0.54131    
O452     O      0.986690000000     0.557580000000     0.763530000000    -0.548033   
O453     O      0.539100000000     0.557580000000     0.767610000000    -0.554964   
O454     O      0.539100000000     0.968220000000     0.763530000000    -0.548268   
O455     O      0.539080000000     0.515600000000     0.720670000000    -0.554432   
O456     O      0.539080000000     0.010200000000     0.810470000000    -0.555403   
O457     O      0.539080000000     0.760210000000     0.810470000000    -0.554057   
O458     O      0.539080000000     0.765590000000     0.720670000000    -0.55438    
O459     O      0.539100000000     0.807580000000     0.767600000000    -0.554915   
O460     O      0.539100000000     0.718220000000     0.763540000000    -0.555063   
O461     O      0.986690000000     0.718220000000     0.767600000000    -0.548056   
O462     O      0.986690000000     0.807580000000     0.763540000000    -0.548014   
O463     O      0.986700000000     0.760210000000     0.720670000000    -0.547237   
O464     O      0.986700000000     0.765590000000     0.810470000000    -0.546958   
O465     O      0.789060000000     0.009930000000     0.810460000000    -0.555407   
O466     O      0.789060000000     0.515850000000     0.720690000000    -0.554107   
O467     O      0.789080000000     0.557560000000     0.767950000000    -0.55467    
O468     O      0.789080000000     0.968220000000     0.763200000000    -0.547998   
O469     O      0.736730000000     0.968220000000     0.767960000000    -0.547858   
O470     O      0.736730000000     0.557560000000     0.763190000000    -0.554604   
O471     O      0.736750000000     0.009920000000     0.720690000000    -0.555415   
O472     O      0.736750000000     0.515860000000     0.810460000000    -0.553879   
O473     O      0.736750000000     0.759940000000     0.810460000000    -0.553811   
O474     O      0.736750000000     0.765850000000     0.720690000000    -0.554038   
O475     O      0.736730000000     0.718220000000     0.763200000000    -0.554734   
O476     O      0.736730000000     0.807560000000     0.767950000000    -0.554548   
O477     O      0.789080000000     0.807560000000     0.763210000000    -0.554689   
O478     O      0.789080000000     0.718220000000     0.767950000000    -0.554755   
O479     O      0.789070000000     0.759940000000     0.720690000000    -0.553988   
O480     O      0.789070000000     0.765840000000     0.810460000000    -0.553753   
O481     O      0.010190000000     0.539080000000     0.970670000000    -0.546383   
O482     O      0.515600000000     0.539080000000     0.560470000000    -0.554272   
O483     O      0.557570000000     0.539100000000     0.013530000000    -0.55524    
O484     O      0.968210000000     0.539100000000     0.517610000000    -0.548283   
O485     O      0.968210000000     0.986680000000     0.013530000000    -0.54134    
O486     O      0.557570000000     0.986680000000     0.517610000000    -0.547862   
O487     O      0.010190000000     0.986700000000     0.560470000000    -0.54852    
O488     O      0.515590000000     0.986700000000     0.970670000000    -0.5379     
O489     O      0.515870000000     0.736750000000     0.970690000000    -0.54488    
O490     O      0.009930000000     0.736750000000     0.560450000000    -0.555591   
O491     O      0.968230000000     0.736730000000     0.013190000000    -0.548165   
O492     O      0.557570000000     0.736730000000     0.517950000000    -0.554766   
O493     O      0.557570000000     0.789080000000     0.013190000000    -0.555016   
O494     O      0.968230000000     0.789080000000     0.517950000000    -0.548092   
O495     O      0.515860000000     0.789060000000     0.560450000000    -0.554311   
O496     O      0.009940000000     0.789060000000     0.970690000000    -0.546115   
O497     O      0.760210000000     0.539080000000     0.970680000000    -0.544985   
O498     O      0.765580000000     0.539080000000     0.560480000000    -0.554385   
O499     O      0.807580000000     0.539100000000     0.013550000000    -0.554995   
O500     O      0.718210000000     0.539090000000     0.517610000000    -0.555202   
O501     O      0.718210000000     0.986680000000     0.013550000000    -0.548169   
O502     O      0.807580000000     0.986680000000     0.517600000000    -0.547869   
O503     O      0.760200000000     0.986700000000     0.560470000000    -0.547232   
O504     O      0.765580000000     0.986700000000     0.970680000000    -0.537923   
O505     O      0.765850000000     0.789060000000     0.970690000000    -0.54458    
O506     O      0.759950000000     0.789060000000     0.560460000000    -0.554139   
O507     O      0.807570000000     0.789080000000     0.017950000000    -0.554456   
O508     O      0.718230000000     0.789080000000     0.513210000000    -0.554729   
O509     O      0.718230000000     0.736730000000     0.017950000000    -0.554831   
O510     O      0.807570000000     0.736730000000     0.513200000000    -0.55473    
O511     O      0.765860000000     0.736750000000     0.560460000000    -0.554321   
O512     O      0.759950000000     0.736740000000     0.970700000000    -0.544782   
V1       V      0.484550000000     0.512900000000     0.265570000000     1.3924     
V2       V      0.041240000000     0.512900000000     0.265570000000     1.38092    
V3       V      0.041240000000     0.262900000000     0.265570000000     1.3808     
V4       V      0.484550000000     0.262900000000     0.265570000000     1.39231    
V5       V      0.291230000000     0.012890000000     0.265580000000     1.38244    
V6       V      0.234580000000     0.012890000000     0.265580000000     1.38227    
V7       V      0.234580000000     0.262890000000     0.265580000000     1.39116    
V8       V      0.291230000000     0.262890000000     0.265580000000     1.3915     
V9       V      0.012890000000     0.041230000000     0.515570000000     1.37146    
V10      V      0.012890000000     0.484550000000     0.015570000000     1.37251    
V11      V      0.512900000000     0.234580000000     0.515570000000     1.39163    
V12      V      0.512900000000     0.291230000000     0.015570000000     1.38067    
V13      V      0.262890000000     0.041230000000     0.515580000000     1.38058    
V14      V      0.262890000000     0.484540000000     0.015580000000     1.38133    
V15      V      0.262900000000     0.291230000000     0.515580000000     1.3914     
V16      V      0.262900000000     0.234570000000     0.015580000000     1.38066    
V17      V      0.484550000000     0.512900000000     0.765570000000     1.39249    
V18      V      0.041240000000     0.512900000000     0.765570000000     1.38108    
V19      V      0.041240000000     0.262900000000     0.765570000000     1.38096    
V20      V      0.484550000000     0.262900000000     0.765570000000     1.39243    
V21      V      0.291230000000     0.012890000000     0.765580000000     1.38258    
V22      V      0.234580000000     0.012890000000     0.765580000000     1.38239    
V23      V      0.234580000000     0.262890000000     0.765580000000     1.39129    
V24      V      0.291230000000     0.262890000000     0.765580000000     1.39161    
V25      V      0.012890000000     0.041230000000     0.015570000000     1.36056    
V26      V      0.012890000000     0.484550000000     0.515570000000     1.38347    
V27      V      0.512900000000     0.234580000000     0.015570000000     1.38068    
V28      V      0.512900000000     0.291230000000     0.515570000000     1.39163    
V29      V      0.262890000000     0.041230000000     0.015580000000     1.36967    
V30      V      0.262890000000     0.484540000000     0.515570000000     1.39233    
V31      V      0.262900000000     0.291230000000     0.015580000000     1.38038    
V32      V      0.262900000000     0.234570000000     0.515580000000     1.39131    
V33      V      0.484550000000     0.012900000000     0.265570000000     1.38352    
V34      V      0.041240000000     0.012900000000     0.265570000000     1.37209    
V35      V      0.041240000000     0.762900000000     0.265570000000     1.38107    
V36      V      0.484550000000     0.762900000000     0.265570000000     1.39252    
V37      V      0.291230000000     0.512890000000     0.265580000000     1.39131    
V38      V      0.234580000000     0.512890000000     0.265580000000     1.39113    
V39      V      0.234580000000     0.762890000000     0.265580000000     1.39117    
V40      V      0.291230000000     0.762890000000     0.265580000000     1.39148    
V41      V      0.012890000000     0.541240000000     0.515570000000     1.3828     
V42      V      0.012890000000     0.984550000000     0.015570000000     1.37768    
V43      V      0.512900000000     0.734580000000     0.515570000000     1.39138    
V44      V      0.512900000000     0.791230000000     0.015570000000     1.38093    
V45      V      0.262890000000     0.541230000000     0.515580000000     1.39198    
V46      V      0.262890000000     0.984550000000     0.015580000000     1.38676    
V47      V      0.262900000000     0.791230000000     0.515580000000     1.39134    
V48      V      0.262900000000     0.734580000000     0.015580000000     1.38047    
V49      V      0.484550000000     0.012900000000     0.765570000000     1.38364    
V50      V      0.041240000000     0.012900000000     0.765570000000     1.37225    
V51      V      0.041240000000     0.762900000000     0.765570000000     1.38123    
V52      V      0.484550000000     0.762900000000     0.765570000000     1.39264    
V53      V      0.291230000000     0.512890000000     0.765580000000     1.39145    
V54      V      0.234580000000     0.512890000000     0.765580000000     1.39125    
V55      V      0.234580000000     0.762890000000     0.765580000000     1.3913     
V56      V      0.291230000000     0.762890000000     0.765580000000     1.3916     
V57      V      0.012890000000     0.541240000000     0.015570000000     1.37184    
V58      V      0.012890000000     0.984550000000     0.515570000000     1.38862    
V59      V      0.512900000000     0.734580000000     0.015570000000     1.38042    
V60      V      0.512900000000     0.791230000000     0.515570000000     1.39188    
V61      V      0.262890000000     0.541230000000     0.015580000000     1.38101    
V62      V      0.262890000000     0.984550000000     0.515570000000     1.39773    
V63      V      0.262900000000     0.791230000000     0.015580000000     1.38033    
V64      V      0.262900000000     0.734580000000     0.515580000000     1.39112    
V65      V      0.984550000000     0.512900000000     0.265570000000     1.39785    
V66      V      0.541240000000     0.512900000000     0.265570000000     1.39215    
V67      V      0.541240000000     0.262900000000     0.265570000000     1.39203    
V68      V      0.984550000000     0.262900000000     0.265570000000     1.39779    
V69      V      0.791230000000     0.012890000000     0.265580000000     1.38268    
V70      V      0.734580000000     0.012890000000     0.265580000000     1.38203    
V71      V      0.734580000000     0.262890000000     0.265580000000     1.39099    
V72      V      0.791230000000     0.262890000000     0.265580000000     1.39158    
V73      V      0.512890000000     0.041230000000     0.515570000000     1.38062    
V74      V      0.512890000000     0.484550000000     0.015570000000     1.38132    
V75      V      0.012900000000     0.234580000000     0.515570000000     1.38248    
V76      V      0.012900000000     0.291230000000     0.015570000000     1.37152    
V77      V      0.762890000000     0.041230000000     0.515580000000     1.3806     
V78      V      0.762890000000     0.484540000000     0.015580000000     1.38138    
V79      V      0.762900000000     0.291230000000     0.515580000000     1.3914     
V80      V      0.762900000000     0.234570000000     0.015580000000     1.38069    
V81      V      0.984550000000     0.512900000000     0.765570000000     1.39794    
V82      V      0.541240000000     0.512900000000     0.765570000000     1.39227    
V83      V      0.541240000000     0.262900000000     0.765570000000     1.39214    
V84      V      0.984550000000     0.262900000000     0.765570000000     1.39789    
V85      V      0.791230000000     0.012890000000     0.765580000000     1.38283    
V86      V      0.734580000000     0.012890000000     0.765580000000     1.38214    
V87      V      0.734580000000     0.262890000000     0.765580000000     1.39112    
V88      V      0.791230000000     0.262890000000     0.765580000000     1.39169    
V89      V      0.512890000000     0.041230000000     0.015570000000     1.36972    
V90      V      0.512890000000     0.484550000000     0.515570000000     1.39229    
V91      V      0.012900000000     0.234580000000     0.015570000000     1.37153    
V92      V      0.012900000000     0.291230000000     0.515570000000     1.38247    
V93      V      0.762890000000     0.041230000000     0.015580000000     1.36973    
V94      V      0.762890000000     0.484540000000     0.515570000000     1.39235    
V95      V      0.762900000000     0.291230000000     0.015580000000     1.3804     
V96      V      0.762900000000     0.234570000000     0.515580000000     1.39131    
V97      V      0.984550000000     0.012900000000     0.265570000000     1.38901    
V98      V      0.541240000000     0.012900000000     0.265570000000     1.38327    
V99      V      0.541240000000     0.762900000000     0.265570000000     1.39229    
V100     V      0.984550000000     0.762900000000     0.265570000000     1.39799    
V101     V      0.791230000000     0.512890000000     0.265580000000     1.39155    
V102     V      0.734580000000     0.512890000000     0.265580000000     1.39089    
V103     V      0.734580000000     0.762890000000     0.265580000000     1.391      
V104     V      0.791230000000     0.762890000000     0.265580000000     1.39157    
V105     V      0.512890000000     0.541240000000     0.515570000000     1.39202    
V106     V      0.512890000000     0.984550000000     0.015570000000     1.38648    
V107     V      0.012900000000     0.734580000000     0.515570000000     1.38223    
V108     V      0.012900000000     0.791230000000     0.015570000000     1.37178    
V109     V      0.762890000000     0.541230000000     0.515580000000     1.392      
V110     V      0.762890000000     0.984550000000     0.015580000000     1.38678    
V111     V      0.762900000000     0.791230000000     0.515580000000     1.39134    
V112     V      0.762900000000     0.734580000000     0.015580000000     1.38049    
V113     V      0.984550000000     0.012900000000     0.765570000000     1.3891     
V114     V      0.541240000000     0.012900000000     0.765570000000     1.38339    
V115     V      0.541240000000     0.762900000000     0.765570000000     1.39241    
V116     V      0.984550000000     0.762900000000     0.765570000000     1.39808    
V117     V      0.791230000000     0.512890000000     0.765580000000     1.39169    
V118     V      0.734580000000     0.512890000000     0.765580000000     1.39101    
V119     V      0.734580000000     0.762890000000     0.765580000000     1.39136    
V120     V      0.791240000000     0.762890000000     0.765580000000     1.39178    
V121     V      0.512890000000     0.541240000000     0.015570000000     1.38106    
V122     V      0.512890000000     0.984550000000     0.515570000000     1.39742    
V123     V      0.012900000000     0.734580000000     0.015570000000     1.37127    
V124     V      0.012900000000     0.791230000000     0.515570000000     1.38273    
V125     V      0.762890000000     0.541230000000     0.015580000000     1.38107    
V126     V      0.762890000000     0.984550000000     0.515570000000     1.39773    
V127     V      0.762900000000     0.791230000000     0.015580000000     1.38036    
V128     V      0.762900000000     0.734580000000     0.515580000000     1.39112    


