data_structure

_audit_creation_method RASPA-1.0
_audit_creation_date 2023-5-23
_audit_author_name 'Poobodin Mano'

_cell_length_a    42.4421
_cell_length_b    42.4421
_cell_length_c    31.7513
_cell_angle_alpha 90.0001
_cell_angle_beta  90
_cell_angle_gamma 120
_cell_volume      49532

_symmetry_cell_setting          triclinic
_symmetry_space_group_name_Hall 'P 1'
_symmetry_space_group_name_H-M  'P 1'
_symmetry_Int_Tables_number     1

_symmetry_equiv_pos_as_xyz 'x,y,z'

loop_
_atom_site_label
_atom_site_type_symbol
_atom_site_fract_x
_atom_site_fract_y
_atom_site_fract_z
_atom_site_charge
C1       C      0.519250000000     0.012870000000     0.267610000000     0.476731   
C2       C      0.519250000000     0.012870000000     0.427240000000     0.476617   
C3       C      0.459460000000     0.453090000000     0.347430000000     0.476565   
C4       C      0.079040000000     0.072660000000     0.347420000000     0.474833   
C5       C      0.519270000000     0.262830000000     0.267610000000     0.477311   
C6       C      0.519260000000     0.262820000000     0.427230000000     0.477293   
C7       C      0.459480000000     0.203040000000     0.347420000000     0.476313   
C8       C      0.079060000000     0.322620000000     0.347430000000     0.474438   
C9       C      0.269270000000     0.512830000000     0.267620000000     0.477356   
C10      C      0.269270000000     0.512830000000     0.427250000000     0.477316   
C11      C      0.329050000000     0.072620000000     0.347420000000     0.476367   
C12      C      0.209480000000     0.453040000000     0.347430000000     0.476279   
C13      C      0.269240000000     0.262870000000     0.267610000000     0.477353   
C14      C      0.269250000000     0.262880000000     0.427230000000     0.477277   
C15      C      0.329040000000     0.322660000000     0.347420000000     0.476651   
C16      C      0.209460000000     0.203090000000     0.347430000000     0.476271   
C17      C      0.459470000000     0.512850000000     0.014090000000     0.475516   
C18      C      0.079050000000     0.512850000000     0.014110000000     0.473692   
C19      C      0.019250000000     0.012840000000     0.934280000000     0.472497   
C20      C      0.019250000000     0.012860000000     0.093900000000     0.473262   
C21      C      0.079040000000     0.262850000000     0.014070000000     0.473793   
C22      C      0.459470000000     0.262850000000     0.014100000000     0.475612   
C23      C      0.519270000000     0.262850000000     0.093900000000     0.476991   
C24      C      0.519250000000     0.262850000000     0.934280000000     0.476852   
C25      C      0.329040000000     0.012850000000     0.014080000000     0.474969   
C26      C      0.209460000000     0.012850000000     0.014100000000     0.474921   
C27      C      0.269260000000     0.512860000000     0.934290000000     0.476843   
C28      C      0.269270000000     0.512840000000     0.093910000000     0.477012   
C29      C      0.209470000000     0.262850000000     0.014080000000     0.4755     
C30      C      0.329040000000     0.262850000000     0.014100000000     0.475616   
C31      C      0.269250000000     0.262860000000     0.093900000000     0.477013   
C32      C      0.269270000000     0.262850000000     0.934280000000     0.476812   
C33      C      0.019250000000     0.012830000000     0.760570000000     0.452018   
C34      C      0.019250000000     0.012850000000     0.600950000000     0.451957   
C35      C      0.519250000000     0.453050000000     0.680750000000     0.476337   
C36      C      0.519250000000     0.072630000000     0.680770000000     0.476327   
C37      C      0.519250000000     0.262850000000     0.760570000000     0.477105   
C38      C      0.519250000000     0.262830000000     0.600950000000     0.47738    
C39      C      0.019250000000     0.322630000000     0.680740000000     0.451447   
C40      C      0.019250000000     0.203050000000     0.680770000000     0.451792   
C41      C      0.269260000000     0.512870000000     0.760580000000     0.477176   
C42      C      0.269270000000     0.512850000000     0.600960000000     0.477284   
C43      C      0.269270000000     0.072650000000     0.680740000000     0.4767     
C44      C      0.269270000000     0.453070000000     0.680780000000     0.47654    
C45      C      0.269270000000     0.262850000000     0.760570000000     0.477442   
C46      C      0.269260000000     0.262870000000     0.600950000000     0.477388   
C47      C      0.269270000000     0.203070000000     0.680740000000     0.476539   
C48      C      0.269270000000     0.322650000000     0.680770000000     0.476731   
C49      C      0.237180000000     0.388270000000     0.680680000000     0.0302426  
C50      C      0.301350000000     0.420350000000     0.680880000000     0.030296   
C51      C      0.301350000000     0.387450000000     0.680680000000     0.0302925  
C52      C      0.237180000000     0.355370000000     0.680880000000     0.0302014  
C53      C      0.301350000000     0.137450000000     0.680640000000     0.0302834  
C54      C      0.237180000000     0.105370000000     0.680840000000     0.0301861  
C55      C      0.237180000000     0.138270000000     0.680630000000     0.0302324  
C56      C      0.301350000000     0.170350000000     0.680840000000     0.0302916  
C57      C      0.051330000000     0.420330000000     0.680840000000     0.026945   
C58      C      0.487170000000     0.388250000000     0.680640000000     0.0302453  
C59      C      0.487170000000     0.355350000000     0.680840000000     0.0302689  
C60      C      0.051330000000     0.387430000000     0.680640000000     0.0269495  
C61      C      0.051330000000     0.137430000000     0.680670000000     0.0269516  
C62      C      0.487160000000     0.105350000000     0.680880000000     0.0301955  
C63      C      0.487160000000     0.138250000000     0.680670000000     0.030214   
C64      C      0.051330000000     0.170330000000     0.680880000000     0.0269614  
C65      C      0.296730000000     0.291000000000     0.869400000000     0.0321548  
C66      C      0.241810000000     0.234690000000     0.869400000000     0.0320802  
C67      C      0.241110000000     0.235380000000     0.825440000000     0.0319317  
C68      C      0.297430000000     0.290310000000     0.825450000000     0.0319998  
C69      C      0.296710000000     0.041020000000     0.869410000000     0.0320447  
C70      C      0.241800000000     0.484710000000     0.869410000000     0.0321277  
C71      C      0.241100000000     0.485400000000     0.825450000000     0.0318968  
C72      C      0.297410000000     0.040330000000     0.825450000000     0.0319683  
C73      C      0.426750000000     0.294930000000     0.014010000000     0.0298362  
C74      C      0.394670000000     0.230770000000     0.014210000000     0.0298377  
C75      C      0.361770000000     0.230770000000     0.014010000000     0.0297972  
C76      C      0.393850000000     0.294930000000     0.014210000000     0.0297928  
C77      C      0.143850000000     0.294930000000     0.014170000000     0.029587   
C78      C      0.111770000000     0.230770000000     0.013970000000     0.0294161  
C79      C      0.144660000000     0.230770000000     0.014170000000     0.0294921  
C80      C      0.176750000000     0.294930000000     0.013970000000     0.0297736  
C81      C      0.046700000000     0.291010000000     0.869400000000     0.0294257  
C82      C      0.491780000000     0.234700000000     0.869400000000     0.032067   
C83      C      0.491090000000     0.235390000000     0.825440000000     0.0320847  
C84      C      0.047400000000     0.290310000000     0.825440000000     0.0283125  
C85      C      0.426750000000     0.044930000000     0.013980000000     0.0297583  
C86      C      0.394670000000     0.480770000000     0.014190000000     0.0298105  
C87      C      0.361770000000     0.480770000000     0.013990000000     0.0298431  
C88      C      0.393840000000     0.044930000000     0.014180000000     0.0297437  
C89      C      0.111770000000     0.480770000000     0.014010000000     0.0294446  
C90      C      0.143840000000     0.044930000000     0.014210000000     0.029546   
C91      C      0.176740000000     0.044930000000     0.014000000000     0.0296732  
C92      C      0.144670000000     0.480770000000     0.014210000000     0.029501   
C93      C      0.491800000000     0.484680000000     0.869420000000     0.0321213  
C94      C      0.046720000000     0.040990000000     0.869400000000     0.0293734  
C95      C      0.047410000000     0.040300000000     0.825440000000     0.0281999  
C96      C      0.491100000000     0.485370000000     0.825460000000     0.0319899  
C97      C      0.296720000000     0.262190000000     0.492110000000     0.031847   
C98      C      0.241800000000     0.263580000000     0.492110000000     0.0316542  
C99      C      0.241110000000     0.262180000000     0.536070000000     0.0317808  
C100     C      0.297420000000     0.263570000000     0.536070000000     0.0316866  
C101     C      0.268550000000     0.290330000000     0.202730000000     0.0317991  
C102     C      0.269940000000     0.235400000000     0.202740000000     0.0317535  
C103     C      0.268550000000     0.234700000000     0.158780000000     0.0317575  
C104     C      0.269940000000     0.291020000000     0.158770000000     0.0318074  
C105     C      0.296730000000     0.012140000000     0.492110000000     0.0317351  
C106     C      0.241810000000     0.513530000000     0.492120000000     0.0317356  
C107     C      0.241110000000     0.512140000000     0.536080000000     0.03167    
C108     C      0.297430000000     0.013530000000     0.536070000000     0.0316382  
C109     C      0.268570000000     0.040290000000     0.202740000000     0.0317417  
C110     C      0.269960000000     0.485370000000     0.202740000000     0.0318332  
C111     C      0.268570000000     0.484680000000     0.158780000000     0.0317793  
C112     C      0.269960000000     0.040990000000     0.158780000000     0.0317374  
C113     C      0.991100000000     0.262130000000     0.536060000000     0.0462205  
C114     C      0.547410000000     0.263520000000     0.536070000000     0.0317225  
C115     C      0.546720000000     0.262120000000     0.492110000000     0.0317343  
C116     C      0.991800000000     0.263510000000     0.492110000000     0.0487781  
C117     C      0.394680000000     0.170320000000     0.347310000000     0.0302465  
C118     C      0.426760000000     0.138230000000     0.347520000000     0.0301109  
C119     C      0.393860000000     0.105340000000     0.347310000000     0.0302817  
C120     C      0.361780000000     0.137420000000     0.347520000000     0.0302125  
C121     C      0.143860000000     0.355330000000     0.347330000000     0.029998   
C122     C      0.111780000000     0.387420000000     0.347540000000     0.0298433  
C123     C      0.144680000000     0.420320000000     0.347330000000     0.029945   
C124     C      0.176760000000     0.388230000000     0.347540000000     0.0301213  
C125     C      0.518580000000     0.290300000000     0.202740000000     0.0318682  
C126     C      0.019970000000     0.235380000000     0.202730000000     0.0299914  
C127     C      0.018580000000     0.234690000000     0.158770000000     0.0299551  
C128     C      0.519970000000     0.291000000000     0.158780000000     0.0317045  
C129     C      0.547400000000     0.513560000000     0.536080000000     0.0317998  
C130     C      0.991090000000     0.012170000000     0.536070000000     0.046053   
C131     C      0.991790000000     0.013560000000     0.492110000000     0.048722   
C132     C      0.546710000000     0.512170000000     0.492120000000     0.031721   
C133     C      0.394660000000     0.420370000000     0.347320000000     0.0302554  
C134     C      0.426740000000     0.388280000000     0.347530000000     0.030175   
C135     C      0.393840000000     0.355380000000     0.347320000000     0.0302176  
C136     C      0.361760000000     0.387470000000     0.347520000000     0.0302321  
C137     C      0.144660000000     0.170370000000     0.347330000000     0.0299293  
C138     C      0.176740000000     0.138280000000     0.347530000000     0.0301082  
C139     C      0.143840000000     0.105380000000     0.347330000000     0.0299836  
C140     C      0.111760000000     0.137470000000     0.347530000000     0.0298585  
C141     C      0.519950000000     0.485410000000     0.202750000000     0.0317978  
C142     C      0.018550000000     0.040330000000     0.202730000000     0.0298288  
C143     C      0.019940000000     0.041020000000     0.158770000000     0.0298952  
C144     C      0.518560000000     0.484710000000     0.158790000000     0.0318079  
C145     C      0.519250000000     0.512880000000     0.267620000000     0.477342   
C146     C      0.519250000000     0.512870000000     0.427250000000     0.477349   
C147     C      0.459460000000     0.953090000000     0.347420000000     0.476326   
C148     C      0.079040000000     0.572660000000     0.347440000000     0.474812   
C149     C      0.519270000000     0.762830000000     0.267630000000     0.476766   
C150     C      0.519260000000     0.762820000000     0.427250000000     0.47728    
C151     C      0.459480000000     0.703040000000     0.347430000000     0.476314   
C152     C      0.079050000000     0.822610000000     0.347440000000     0.474877   
C153     C      0.269260000000     0.012830000000     0.267610000000     0.476757   
C154     C      0.269270000000     0.012830000000     0.427230000000     0.47639    
C155     C      0.329060000000     0.572610000000     0.347430000000     0.476626   
C156     C      0.209480000000     0.953040000000     0.347430000000     0.476274   
C157     C      0.269240000000     0.762870000000     0.267620000000     0.477358   
C158     C      0.269260000000     0.762880000000     0.427240000000     0.477118   
C159     C      0.329040000000     0.822660000000     0.347420000000     0.476653   
C160     C      0.209460000000     0.703090000000     0.347440000000     0.476265   
C161     C      0.459460000000     0.012850000000     0.014080000000     0.474884   
C162     C      0.079040000000     0.012850000000     0.014100000000     0.473171   
C163     C      0.019260000000     0.512840000000     0.934290000000     0.473081   
C164     C      0.019260000000     0.512860000000     0.093910000000     0.47374    
C165     C      0.079040000000     0.762850000000     0.014090000000     0.473773   
C166     C      0.459470000000     0.762850000000     0.014120000000     0.475604   
C167     C      0.519270000000     0.762850000000     0.093910000000     0.476735   
C168     C      0.519250000000     0.762850000000     0.934290000000     0.476801   
C169     C      0.329050000000     0.512850000000     0.014090000000     0.475543   
C170     C      0.209470000000     0.512850000000     0.014110000000     0.475442   
C171     C      0.269250000000     0.012860000000     0.934280000000     0.476292   
C172     C      0.269260000000     0.012840000000     0.093900000000     0.476456   
C173     C      0.209470000000     0.762850000000     0.014090000000     0.475548   
C174     C      0.329040000000     0.762850000000     0.014110000000     0.475572   
C175     C      0.269250000000     0.762860000000     0.093910000000     0.476711   
C176     C      0.269270000000     0.762850000000     0.934290000000     0.47681    
C177     C      0.019260000000     0.512830000000     0.760580000000     0.4525     
C178     C      0.019250000000     0.512850000000     0.600960000000     0.452348   
C179     C      0.519250000000     0.953050000000     0.680750000000     0.476591   
C180     C      0.519250000000     0.572630000000     0.680780000000     0.476324   
C181     C      0.519250000000     0.762850000000     0.760580000000     0.477407   
C182     C      0.519250000000     0.762830000000     0.600960000000     0.477333   
C183     C      0.019250000000     0.822630000000     0.680750000000     0.451573   
C184     C      0.019250000000     0.703050000000     0.680780000000     0.451505   
C185     C      0.269260000000     0.012870000000     0.760570000000     0.476858   
C186     C      0.269270000000     0.012850000000     0.600950000000     0.476801   
C187     C      0.269270000000     0.572650000000     0.680760000000     0.476419   
C188     C      0.269270000000     0.953070000000     0.680770000000     0.476557   
C189     C      0.269270000000     0.762850000000     0.760580000000     0.477424   
C190     C      0.269260000000     0.762870000000     0.600960000000     0.47699    
C191     C      0.269270000000     0.703070000000     0.680750000000     0.476303   
C192     C      0.269270000000     0.822650000000     0.680780000000     0.476705   
C193     C      0.237180000000     0.888270000000     0.680680000000     0.0302678  
C194     C      0.301350000000     0.920350000000     0.680880000000     0.0303221  
C195     C      0.301350000000     0.887450000000     0.680680000000     0.0303144  
C196     C      0.237180000000     0.855370000000     0.680880000000     0.030209   
C197     C      0.301350000000     0.637450000000     0.680650000000     0.0302707  
C198     C      0.237180000000     0.605370000000     0.680850000000     0.0301422  
C199     C      0.237190000000     0.638270000000     0.680650000000     0.0303129  
C200     C      0.301350000000     0.670350000000     0.680850000000     0.0302926  
C201     C      0.051330000000     0.920330000000     0.680850000000     0.0269863  
C202     C      0.487160000000     0.888250000000     0.680640000000     0.0302633  
C203     C      0.487160000000     0.855350000000     0.680850000000     0.0302025  
C204     C      0.051330000000     0.887430000000     0.680640000000     0.0269694  
C205     C      0.051330000000     0.637430000000     0.680690000000     0.0269562  
C206     C      0.487170000000     0.605350000000     0.680890000000     0.0302739  
C207     C      0.487170000000     0.638250000000     0.680690000000     0.0302304  
C208     C      0.051330000000     0.670330000000     0.680890000000     0.0269379  
C209     C      0.296730000000     0.791000000000     0.869410000000     0.0321499  
C210     C      0.241810000000     0.734690000000     0.869410000000     0.0320856  
C211     C      0.241110000000     0.735380000000     0.825450000000     0.0319205  
C212     C      0.297430000000     0.790310000000     0.825460000000     0.032014   
C213     C      0.296720000000     0.541020000000     0.869410000000     0.0321286  
C214     C      0.241790000000     0.984710000000     0.869400000000     0.0324663  
C215     C      0.241100000000     0.985400000000     0.825440000000     0.0322879  
C216     C      0.297420000000     0.540330000000     0.825460000000     0.0319976  
C217     C      0.426750000000     0.794930000000     0.014020000000     0.0298316  
C218     C      0.394660000000     0.730770000000     0.014220000000     0.029791   
C219     C      0.361760000000     0.730770000000     0.014020000000     0.0298402  
C220     C      0.393850000000     0.794930000000     0.014220000000     0.0297916  
C221     C      0.143850000000     0.794930000000     0.014180000000     0.0295854  
C222     C      0.111760000000     0.730770000000     0.013980000000     0.0294507  
C223     C      0.144660000000     0.730770000000     0.014180000000     0.0294852  
C224     C      0.176750000000     0.794930000000     0.013980000000     0.0297768  
C225     C      0.046700000000     0.791010000000     0.869410000000     0.0294771  
C226     C      0.491780000000     0.734700000000     0.869420000000     0.0321023  
C227     C      0.491090000000     0.735390000000     0.825460000000     0.0320295  
C228     C      0.047400000000     0.790310000000     0.825460000000     0.0282751  
C229     C      0.426750000000     0.544940000000     0.013990000000     0.0297336  
C230     C      0.394660000000     0.980770000000     0.014180000000     0.0301657  
C231     C      0.361760000000     0.980770000000     0.013980000000     0.0301945  
C232     C      0.393850000000     0.544940000000     0.014190000000     0.0298077  
C233     C      0.111760000000     0.980770000000     0.014000000000     0.0297995  
C234     C      0.143860000000     0.544940000000     0.014210000000     0.02956    
C235     C      0.176750000000     0.544940000000     0.014010000000     0.0296897  
C236     C      0.144660000000     0.980770000000     0.014200000000     0.0298577  
C237     C      0.491790000000     0.984680000000     0.869410000000     0.0324532  
C238     C      0.046720000000     0.540990000000     0.869410000000     0.0295027  
C239     C      0.047420000000     0.540300000000     0.825450000000     0.0282427  
C240     C      0.491100000000     0.985370000000     0.825450000000     0.0323816  
C241     C      0.296720000000     0.762190000000     0.492120000000     0.0318347  
C242     C      0.241800000000     0.763580000000     0.492120000000     0.0316697  
C243     C      0.241110000000     0.762180000000     0.536080000000     0.0317732  
C244     C      0.297420000000     0.763570000000     0.536080000000     0.0316891  
C245     C      0.268550000000     0.790320000000     0.202740000000     0.0319325  
C246     C      0.269930000000     0.735400000000     0.202750000000     0.0318478  
C247     C      0.268550000000     0.734700000000     0.158790000000     0.0316903  
C248     C      0.269940000000     0.791020000000     0.158780000000     0.0317061  
C249     C      0.296730000000     0.512140000000     0.492120000000     0.0318514  
C250     C      0.241810000000     0.013530000000     0.492110000000     0.0316589  
C251     C      0.241110000000     0.012140000000     0.536070000000     0.0315954  
C252     C      0.297430000000     0.513530000000     0.536080000000     0.0316824  
C253     C      0.268580000000     0.540300000000     0.202750000000     0.0317559  
C254     C      0.269960000000     0.985370000000     0.202730000000     0.0321675  
C255     C      0.268570000000     0.984680000000     0.158770000000     0.0321069  
C256     C      0.269960000000     0.540990000000     0.158790000000     0.0318138  
C257     C      0.991100000000     0.762130000000     0.536080000000     0.0461639  
C258     C      0.547410000000     0.763520000000     0.536080000000     0.0317378  
C259     C      0.546720000000     0.762130000000     0.492130000000     0.031769   
C260     C      0.991800000000     0.763520000000     0.492120000000     0.0487821  
C261     C      0.394680000000     0.670320000000     0.347330000000     0.0302426  
C262     C      0.426760000000     0.638240000000     0.347530000000     0.0302856  
C263     C      0.393860000000     0.605330000000     0.347330000000     0.0301359  
C264     C      0.361780000000     0.637420000000     0.347530000000     0.0302475  
C265     C      0.143860000000     0.855330000000     0.347340000000     0.0299538  
C266     C      0.111780000000     0.887420000000     0.347540000000     0.0299175  
C267     C      0.144670000000     0.920320000000     0.347330000000     0.0298564  
C268     C      0.176760000000     0.888240000000     0.347540000000     0.0302547  
C269     C      0.518580000000     0.790300000000     0.202750000000     0.0318427  
C270     C      0.019970000000     0.735380000000     0.202740000000     0.0299988  
C271     C      0.018580000000     0.734680000000     0.158790000000     0.029814   
C272     C      0.519970000000     0.791000000000     0.158800000000     0.0316815  
C273     C      0.547400000000     0.013560000000     0.536070000000     0.0317111  
C274     C      0.991090000000     0.512170000000     0.536080000000     0.0461798  
C275     C      0.991790000000     0.513560000000     0.492120000000     0.0488277  
C276     C      0.546710000000     0.012180000000     0.492110000000     0.0316904  
C277     C      0.394660000000     0.920370000000     0.347320000000     0.0302637  
C278     C      0.426740000000     0.888280000000     0.347520000000     0.0301897  
C279     C      0.393840000000     0.855380000000     0.347320000000     0.0302319  
C280     C      0.361760000000     0.887470000000     0.347530000000     0.0302861  
C281     C      0.144660000000     0.670370000000     0.347340000000     0.0299346  
C282     C      0.176740000000     0.638280000000     0.347540000000     0.0301084  
C283     C      0.143840000000     0.605380000000     0.347340000000     0.0300095  
C284     C      0.111760000000     0.637470000000     0.347540000000     0.0298422  
C285     C      0.519940000000     0.985410000000     0.202740000000     0.0321845  
C286     C      0.018560000000     0.540330000000     0.202740000000     0.0299399  
C287     C      0.019950000000     0.541020000000     0.158780000000     0.0299375  
C288     C      0.518550000000     0.984710000000     0.158780000000     0.0321547  
C289     C      0.019250000000     0.012870000000     0.267610000000     0.473564   
C290     C      0.019250000000     0.012870000000     0.427240000000     0.47287    
C291     C      0.959460000000     0.453090000000     0.347430000000     0.47428    
C292     C      0.579040000000     0.072660000000     0.347420000000     0.476608   
C293     C      0.019270000000     0.262830000000     0.267610000000     0.474115   
C294     C      0.019260000000     0.262820000000     0.427230000000     0.473813   
C295     C      0.959480000000     0.203040000000     0.347420000000     0.473967   
C296     C      0.579060000000     0.322620000000     0.347430000000     0.476211   
C297     C      0.769270000000     0.512830000000     0.267620000000     0.477564   
C298     C      0.769270000000     0.512830000000     0.427250000000     0.477423   
C299     C      0.829050000000     0.072620000000     0.347420000000     0.476766   
C300     C      0.709480000000     0.453040000000     0.347430000000     0.476268   
C301     C      0.769240000000     0.262870000000     0.267610000000     0.477569   
C302     C      0.769260000000     0.262880000000     0.427240000000     0.477286   
C303     C      0.829040000000     0.322660000000     0.347420000000     0.477058   
C304     C      0.709460000000     0.203090000000     0.347430000000     0.476285   
C305     C      0.959480000000     0.512850000000     0.014090000000     0.473312   
C306     C      0.579050000000     0.512850000000     0.014110000000     0.475461   
C307     C      0.519250000000     0.012840000000     0.934280000000     0.475945   
C308     C      0.519250000000     0.012860000000     0.093900000000     0.476451   
C309     C      0.579040000000     0.262850000000     0.014070000000     0.475567   
C310     C      0.959470000000     0.262850000000     0.014100000000     0.473271   
C311     C      0.019270000000     0.262850000000     0.093900000000     0.473795   
C312     C      0.019250000000     0.262850000000     0.934280000000     0.473372   
C313     C      0.829040000000     0.012850000000     0.014080000000     0.47544    
C314     C      0.709470000000     0.012850000000     0.014100000000     0.474976   
C315     C      0.769260000000     0.512860000000     0.934290000000     0.476884   
C316     C      0.769270000000     0.512840000000     0.093910000000     0.477226   
C317     C      0.709470000000     0.262850000000     0.014080000000     0.475517   
C318     C      0.829040000000     0.262850000000     0.014110000000     0.47603    
C319     C      0.769250000000     0.262860000000     0.093900000000     0.477229   
C320     C      0.769270000000     0.262850000000     0.934280000000     0.476887   
C321     C      0.519250000000     0.012840000000     0.760570000000     0.4768     
C322     C      0.519250000000     0.012850000000     0.600950000000     0.476467   
C323     C      0.019250000000     0.453050000000     0.680750000000     0.451568   
C324     C      0.019250000000     0.072630000000     0.680770000000     0.451937   
C325     C      0.019240000000     0.262850000000     0.760570000000     0.452241   
C326     C      0.019250000000     0.262830000000     0.600950000000     0.452489   
C327     C      0.519250000000     0.322630000000     0.680740000000     0.476299   
C328     C      0.519250000000     0.203050000000     0.680770000000     0.476319   
C329     C      0.769260000000     0.512870000000     0.760580000000     0.477424   
C330     C      0.769270000000     0.512850000000     0.600960000000     0.477277   
C331     C      0.769270000000     0.072650000000     0.680740000000     0.476675   
C332     C      0.769270000000     0.453070000000     0.680780000000     0.476521   
C333     C      0.769270000000     0.262850000000     0.760570000000     0.477422   
C334     C      0.769260000000     0.262870000000     0.600950000000     0.477074   
C335     C      0.769270000000     0.203070000000     0.680740000000     0.47651    
C336     C      0.769270000000     0.322650000000     0.680770000000     0.476701   
C337     C      0.737180000000     0.388270000000     0.680680000000     0.0302546  
C338     C      0.801350000000     0.420350000000     0.680880000000     0.030381   
C339     C      0.801350000000     0.387450000000     0.680680000000     0.0303763  
C340     C      0.737180000000     0.355370000000     0.680880000000     0.0302118  
C341     C      0.801350000000     0.137450000000     0.680640000000     0.0303687  
C342     C      0.737180000000     0.105370000000     0.680840000000     0.0301969  
C343     C      0.737180000000     0.138270000000     0.680630000000     0.0302428  
C344     C      0.801350000000     0.170350000000     0.680840000000     0.0303765  
C345     C      0.551330000000     0.420330000000     0.680840000000     0.0302381  
C346     C      0.987170000000     0.388250000000     0.680640000000     0.045163   
C347     C      0.987170000000     0.355350000000     0.680840000000     0.0451857  
C348     C      0.551330000000     0.387430000000     0.680640000000     0.0302474  
C349     C      0.551330000000     0.137430000000     0.680670000000     0.0302402  
C350     C      0.987160000000     0.105350000000     0.680880000000     0.0450797  
C351     C      0.987160000000     0.138250000000     0.680670000000     0.0451246  
C352     C      0.551330000000     0.170330000000     0.680880000000     0.030244   
C353     C      0.796730000000     0.291000000000     0.869400000000     0.0323402  
C354     C      0.741810000000     0.234690000000     0.869400000000     0.0321678  
C355     C      0.741120000000     0.235380000000     0.825450000000     0.0320482  
C356     C      0.797430000000     0.290310000000     0.825450000000     0.0322278  
C357     C      0.796710000000     0.041020000000     0.869410000000     0.0322258  
C358     C      0.741800000000     0.484710000000     0.869410000000     0.0321986  
C359     C      0.741110000000     0.485400000000     0.825450000000     0.0320627  
C360     C      0.797410000000     0.040330000000     0.825450000000     0.0321979  
C361     C      0.926750000000     0.294930000000     0.014010000000     0.0315296  
C362     C      0.894660000000     0.230770000000     0.014210000000     0.0309733  
C363     C      0.861770000000     0.230770000000     0.014010000000     0.0306602  
C364     C      0.893850000000     0.294930000000     0.014210000000     0.0312247  
C365     C      0.643850000000     0.294930000000     0.014170000000     0.0297633  
C366     C      0.611770000000     0.230770000000     0.013970000000     0.0297555  
C367     C      0.644660000000     0.230770000000     0.014170000000     0.0297433  
C368     C      0.676750000000     0.294930000000     0.013970000000     0.0297925  
C369     C      0.546710000000     0.291010000000     0.869400000000     0.0320911  
C370     C      0.991780000000     0.234700000000     0.869400000000     0.0490607  
C371     C      0.991090000000     0.235390000000     0.825440000000     0.0465431  
C372     C      0.547400000000     0.290320000000     0.825440000000     0.0319767  
C373     C      0.926740000000     0.044930000000     0.013980000000     0.0313991  
C374     C      0.894670000000     0.480770000000     0.014190000000     0.0309693  
C375     C      0.861770000000     0.480770000000     0.013990000000     0.0306995  
C376     C      0.893840000000     0.044930000000     0.014180000000     0.0311876  
C377     C      0.611770000000     0.480770000000     0.014010000000     0.0297863  
C378     C      0.643850000000     0.044930000000     0.014210000000     0.0296865  
C379     C      0.676740000000     0.044930000000     0.014000000000     0.0296793  
C380     C      0.644670000000     0.480770000000     0.014220000000     0.0297412  
C381     C      0.991800000000     0.484680000000     0.869420000000     0.0490763  
C382     C      0.546720000000     0.040990000000     0.869400000000     0.031993   
C383     C      0.547410000000     0.040300000000     0.825440000000     0.0319346  
C384     C      0.991100000000     0.485370000000     0.825460000000     0.0464966  
C385     C      0.796720000000     0.262190000000     0.492110000000     0.0320472  
C386     C      0.741800000000     0.263580000000     0.492110000000     0.0318529  
C387     C      0.741100000000     0.262180000000     0.536080000000     0.0317742  
C388     C      0.797420000000     0.263570000000     0.536070000000     0.0319006  
C389     C      0.768550000000     0.290330000000     0.202730000000     0.0321927  
C390     C      0.769940000000     0.235400000000     0.202740000000     0.0322234  
C391     C      0.768550000000     0.234700000000     0.158780000000     0.03215    
C392     C      0.769940000000     0.291020000000     0.158770000000     0.0322771  
C393     C      0.796730000000     0.012140000000     0.492110000000     0.0319397  
C394     C      0.741810000000     0.513530000000     0.492120000000     0.0318424  
C395     C      0.741110000000     0.512140000000     0.536080000000     0.0317775  
C396     C      0.797430000000     0.013530000000     0.536070000000     0.0318586  
C397     C      0.768570000000     0.040290000000     0.202740000000     0.0321325  
C398     C      0.769960000000     0.485370000000     0.202740000000     0.0323327  
C399     C      0.768580000000     0.484680000000     0.158780000000     0.0321171  
C400     C      0.769960000000     0.040990000000     0.158780000000     0.032211   
C401     C      0.491100000000     0.262130000000     0.536060000000     0.0318258  
C402     C      0.047410000000     0.263520000000     0.536070000000     0.0280298  
C403     C      0.046720000000     0.262120000000     0.492110000000     0.0290781  
C404     C      0.491790000000     0.263510000000     0.492110000000     0.0316706  
C405     C      0.894670000000     0.170320000000     0.347310000000     0.0313013  
C406     C      0.926760000000     0.138230000000     0.347520000000     0.0317969  
C407     C      0.893860000000     0.105340000000     0.347310000000     0.0317137  
C408     C      0.861780000000     0.137420000000     0.347520000000     0.0311199  
C409     C      0.643860000000     0.355330000000     0.347330000000     0.0301745  
C410     C      0.611780000000     0.387420000000     0.347540000000     0.0301845  
C411     C      0.644680000000     0.420320000000     0.347330000000     0.0301948  
C412     C      0.676760000000     0.388230000000     0.347540000000     0.0301378  
C413     C      0.018580000000     0.290300000000     0.202740000000     0.0299553  
C414     C      0.519970000000     0.235380000000     0.202730000000     0.0317263  
C415     C      0.518580000000     0.234690000000     0.158770000000     0.0318402  
C416     C      0.019970000000     0.291000000000     0.158780000000     0.0299436  
C417     C      0.047400000000     0.513560000000     0.536080000000     0.0280699  
C418     C      0.491090000000     0.012170000000     0.536070000000     0.0315737  
C419     C      0.491790000000     0.013560000000     0.492110000000     0.0317857  
C420     C      0.046710000000     0.512170000000     0.492120000000     0.0290765  
C421     C      0.894660000000     0.420370000000     0.347320000000     0.031353   
C422     C      0.926740000000     0.388280000000     0.347530000000     0.0319385  
C423     C      0.893840000000     0.355380000000     0.347320000000     0.0316137  
C424     C      0.861760000000     0.387470000000     0.347520000000     0.0311124  
C425     C      0.644660000000     0.170370000000     0.347330000000     0.0301787  
C426     C      0.676740000000     0.138280000000     0.347530000000     0.0301142  
C427     C      0.643840000000     0.105380000000     0.347330000000     0.0301827  
C428     C      0.611760000000     0.137470000000     0.347530000000     0.0301984  
C429     C      0.019950000000     0.485410000000     0.202750000000     0.0300188  
C430     C      0.518550000000     0.040330000000     0.202730000000     0.0316893  
C431     C      0.519940000000     0.041020000000     0.158770000000     0.0316699  
C432     C      0.018560000000     0.484710000000     0.158790000000     0.0299309  
C433     C      0.019250000000     0.512880000000     0.267620000000     0.474143   
C434     C      0.019250000000     0.512870000000     0.427250000000     0.473869   
C435     C      0.959460000000     0.953090000000     0.347420000000     0.473989   
C436     C      0.579040000000     0.572660000000     0.347440000000     0.476586   
C437     C      0.019270000000     0.762830000000     0.267630000000     0.473832   
C438     C      0.019260000000     0.762820000000     0.427250000000     0.473799   
C439     C      0.959480000000     0.703040000000     0.347430000000     0.473971   
C440     C      0.579050000000     0.822610000000     0.347440000000     0.476343   
C441     C      0.769260000000     0.012830000000     0.267610000000     0.476973   
C442     C      0.769270000000     0.012830000000     0.427240000000     0.476445   
C443     C      0.829060000000     0.572610000000     0.347430000000     0.476725   
C444     C      0.709480000000     0.953040000000     0.347430000000     0.476278   
C445     C      0.769240000000     0.762870000000     0.267620000000     0.477577   
C446     C      0.769260000000     0.762880000000     0.427250000000     0.477122   
C447     C      0.829040000000     0.822660000000     0.347430000000     0.477057   
C448     C      0.709460000000     0.703090000000     0.347440000000     0.476344   
C449     C      0.959470000000     0.012850000000     0.014080000000     0.472667   
C450     C      0.579040000000     0.012850000000     0.014100000000     0.474912   
C451     C      0.519260000000     0.512840000000     0.934290000000     0.47658    
C452     C      0.519260000000     0.512860000000     0.093910000000     0.477011   
C453     C      0.579040000000     0.762850000000     0.014090000000     0.475559   
C454     C      0.959470000000     0.762850000000     0.014120000000     0.473206   
C455     C      0.019270000000     0.762850000000     0.093910000000     0.473501   
C456     C      0.019250000000     0.762850000000     0.934290000000     0.473282   
C457     C      0.829050000000     0.512850000000     0.014090000000     0.475953   
C458     C      0.709480000000     0.512850000000     0.014110000000     0.47555    
C459     C      0.769250000000     0.012860000000     0.934280000000     0.476329   
C460     C      0.769260000000     0.012840000000     0.093900000000     0.476715   
C461     C      0.709470000000     0.762850000000     0.014090000000     0.475522   
C462     C      0.829040000000     0.762850000000     0.014110000000     0.476028   
C463     C      0.769250000000     0.762860000000     0.093910000000     0.476924   
C464     C      0.769270000000     0.762850000000     0.934290000000     0.476888   
C465     C      0.519260000000     0.512840000000     0.760580000000     0.477397   
C466     C      0.519250000000     0.512850000000     0.600960000000     0.477249   
C467     C      0.019250000000     0.953050000000     0.680750000000     0.451614   
C468     C      0.019250000000     0.572630000000     0.680780000000     0.451459   
C469     C      0.019240000000     0.762850000000     0.760580000000     0.45251    
C470     C      0.019250000000     0.762830000000     0.600960000000     0.452391   
C471     C      0.519250000000     0.822630000000     0.680750000000     0.476428   
C472     C      0.519250000000     0.703060000000     0.680780000000     0.476398   
C473     C      0.769260000000     0.012870000000     0.760570000000     0.476848   
C474     C      0.769270000000     0.012850000000     0.600950000000     0.47679    
C475     C      0.769270000000     0.572650000000     0.680760000000     0.476398   
C476     C      0.769270000000     0.953070000000     0.680770000000     0.476549   
C477     C      0.769270000000     0.762850000000     0.760580000000     0.477409   
C478     C      0.769260000000     0.762870000000     0.600960000000     0.476972   
C479     C      0.769270000000     0.703070000000     0.680750000000     0.476281   
C480     C      0.769270000000     0.822650000000     0.680780000000     0.476395   
C481     C      0.737180000000     0.888270000000     0.680680000000     0.0302827  
C482     C      0.801350000000     0.920350000000     0.680880000000     0.0304121  
C483     C      0.801350000000     0.887450000000     0.680680000000     0.0303792  
C484     C      0.737180000000     0.855370000000     0.680880000000     0.030207   
C485     C      0.801350000000     0.637450000000     0.680650000000     0.0303561  
C486     C      0.737180000000     0.605370000000     0.680850000000     0.0301523  
C487     C      0.737190000000     0.638270000000     0.680650000000     0.0303236  
C488     C      0.801350000000     0.670350000000     0.680850000000     0.0303782  
C489     C      0.551330000000     0.920330000000     0.680840000000     0.0302818  
C490     C      0.987160000000     0.888250000000     0.680640000000     0.0451271  
C491     C      0.987160000000     0.855350000000     0.680850000000     0.0450802  
C492     C      0.551330000000     0.887430000000     0.680650000000     0.0302594  
C493     C      0.551330000000     0.637440000000     0.680690000000     0.0302153  
C494     C      0.987170000000     0.605350000000     0.680890000000     0.0451827  
C495     C      0.987170000000     0.638250000000     0.680690000000     0.0451583  
C496     C      0.551330000000     0.670330000000     0.680890000000     0.0302222  
C497     C      0.796730000000     0.791000000000     0.869410000000     0.0323378  
C498     C      0.741810000000     0.734690000000     0.869410000000     0.032197   
C499     C      0.741110000000     0.735380000000     0.825460000000     0.0319938  
C500     C      0.797430000000     0.790310000000     0.825460000000     0.0322402  
C501     C      0.796720000000     0.541020000000     0.869420000000     0.0323284  
C502     C      0.741790000000     0.984710000000     0.869400000000     0.0325563  
C503     C      0.741100000000     0.985400000000     0.825440000000     0.0323748  
C504     C      0.797420000000     0.540330000000     0.825460000000     0.0322336  
C505     C      0.926750000000     0.794930000000     0.014020000000     0.0315212  
C506     C      0.894660000000     0.730770000000     0.014220000000     0.0309681  
C507     C      0.861770000000     0.730770000000     0.014020000000     0.0306592  
C508     C      0.893850000000     0.794930000000     0.014220000000     0.0312224  
C509     C      0.643850000000     0.794930000000     0.014180000000     0.0297568  
C510     C      0.611770000000     0.730770000000     0.013980000000     0.0297456  
C511     C      0.644670000000     0.730770000000     0.014180000000     0.0297812  
C512     C      0.676750000000     0.794930000000     0.013980000000     0.0297954  
C513     C      0.546710000000     0.791010000000     0.869420000000     0.0321073  
C514     C      0.991780000000     0.734700000000     0.869420000000     0.0490141  
C515     C      0.991090000000     0.735390000000     0.825460000000     0.0465428  
C516     C      0.547400000000     0.790320000000     0.825460000000     0.0319931  
C517     C      0.926750000000     0.544940000000     0.013990000000     0.0314307  
C518     C      0.894660000000     0.980770000000     0.014180000000     0.0312832  
C519     C      0.861760000000     0.980770000000     0.013980000000     0.0310392  
C520     C      0.893860000000     0.544940000000     0.014190000000     0.0312017  
C521     C      0.611760000000     0.980770000000     0.014000000000     0.0301408  
C522     C      0.643860000000     0.544940000000     0.014210000000     0.0297342  
C523     C      0.676760000000     0.544940000000     0.014010000000     0.0297294  
C524     C      0.644660000000     0.980770000000     0.014210000000     0.0300809  
C525     C      0.991790000000     0.984680000000     0.869410000000     0.0493041  
C526     C      0.546730000000     0.540990000000     0.869410000000     0.0320785  
C527     C      0.547420000000     0.540300000000     0.825450000000     0.0320238  
C528     C      0.991100000000     0.985370000000     0.825450000000     0.046833   
C529     C      0.796720000000     0.762190000000     0.492120000000     0.0320013  
C530     C      0.741800000000     0.763580000000     0.492120000000     0.0318241  
C531     C      0.741110000000     0.762180000000     0.536080000000     0.0317853  
C532     C      0.797420000000     0.763570000000     0.536080000000     0.0319973  
C533     C      0.768550000000     0.790320000000     0.202740000000     0.0323275  
C534     C      0.769930000000     0.735400000000     0.202750000000     0.0323238  
C535     C      0.768550000000     0.734700000000     0.158790000000     0.032069   
C536     C      0.769940000000     0.791020000000     0.158780000000     0.0321739  
C537     C      0.796730000000     0.512140000000     0.492120000000     0.031982   
C538     C      0.741810000000     0.013530000000     0.492110000000     0.0317777  
C539     C      0.741110000000     0.012140000000     0.536070000000     0.0316883  
C540     C      0.797420000000     0.513530000000     0.536080000000     0.0320254  
C541     C      0.768580000000     0.540300000000     0.202750000000     0.0321548  
C542     C      0.769960000000     0.985370000000     0.202730000000     0.032619   
C543     C      0.768570000000     0.984680000000     0.158770000000     0.0324866  
C544     C      0.769960000000     0.540990000000     0.158790000000     0.0322811  
C545     C      0.491100000000     0.762130000000     0.536080000000     0.0317948  
C546     C      0.047410000000     0.763520000000     0.536080000000     0.0280886  
C547     C      0.046720000000     0.762130000000     0.492130000000     0.0290968  
C548     C      0.491790000000     0.763510000000     0.492120000000     0.0317162  
C549     C      0.894680000000     0.670320000000     0.347330000000     0.0314136  
C550     C      0.926760000000     0.638230000000     0.347530000000     0.0318697  
C551     C      0.893860000000     0.605330000000     0.347330000000     0.0316058  
C552     C      0.861780000000     0.637420000000     0.347540000000     0.0310888  
C553     C      0.643860000000     0.855330000000     0.347340000000     0.0301181  
C554     C      0.611780000000     0.887420000000     0.347540000000     0.0302376  
C555     C      0.644670000000     0.920320000000     0.347330000000     0.0301136  
C556     C      0.676760000000     0.888240000000     0.347540000000     0.0302756  
C557     C      0.018580000000     0.790300000000     0.202750000000     0.0299873  
C558     C      0.519970000000     0.735380000000     0.202740000000     0.031768   
C559     C      0.518580000000     0.734680000000     0.158790000000     0.031689   
C560     C      0.019970000000     0.791000000000     0.158800000000     0.0298951  
C561     C      0.047400000000     0.013560000000     0.536070000000     0.0280017  
C562     C      0.491090000000     0.512170000000     0.536080000000     0.0317367  
C563     C      0.491780000000     0.513560000000     0.492120000000     0.0317233  
C564     C      0.046710000000     0.012180000000     0.492110000000     0.0290464  
C565     C      0.894660000000     0.920370000000     0.347320000000     0.0314394  
C566     C      0.926740000000     0.888280000000     0.347530000000     0.0318892  
C567     C      0.893840000000     0.855380000000     0.347320000000     0.0316269  
C568     C      0.861760000000     0.887470000000     0.347530000000     0.0311095  
C569     C      0.644660000000     0.670370000000     0.347340000000     0.030114   
C570     C      0.676740000000     0.638280000000     0.347540000000     0.0302088  
C571     C      0.643840000000     0.605380000000     0.347340000000     0.0301321  
C572     C      0.611760000000     0.637470000000     0.347540000000     0.0302105  
C573     C      0.019940000000     0.985410000000     0.202740000000     0.0303906  
C574     C      0.518560000000     0.540330000000     0.202740000000     0.0318124  
C575     C      0.519950000000     0.541020000000     0.158780000000     0.0317371  
C576     C      0.018550000000     0.984710000000     0.158780000000     0.0302852  
H1       H      0.211100000000     0.387150000000     0.680670000000     0.0311895  
H2       H      0.327440000000     0.445320000000     0.680900000000     0.0312603  
H3       H      0.327440000000     0.388560000000     0.680670000000     0.0312702  
H4       H      0.211100000000     0.330390000000     0.680890000000     0.0312265  
H5       H      0.327440000000     0.138560000000     0.680620000000     0.0312668  
H6       H      0.211100000000     0.080390000000     0.680850000000     0.0311689  
H7       H      0.211100000000     0.137150000000     0.680620000000     0.0311802  
H8       H      0.327440000000     0.195320000000     0.680850000000     0.0312552  
H9       H      0.077420000000     0.445300000000     0.680860000000     0.0313647  
H10      H      0.461080000000     0.387140000000     0.680630000000     0.0312653  
H11      H      0.461080000000     0.330380000000     0.680850000000     0.0312578  
H12      H      0.077420000000     0.388550000000     0.680620000000     0.0313556  
H13      H      0.077420000000     0.138550000000     0.680660000000     0.0313538  
H14      H      0.461080000000     0.080380000000     0.680890000000     0.0312282  
H15      H      0.461080000000     0.137130000000     0.680660000000     0.0312486  
H16      H      0.077420000000     0.195300000000     0.680890000000     0.0313575  
H17      H      0.319130000000     0.313610000000     0.885590000000     0.0335664  
H18      H      0.219410000000     0.212080000000     0.885590000000     0.033333   
H19      H      0.218500000000     0.212990000000     0.809250000000     0.032838   
H20      H      0.320040000000     0.312700000000     0.809260000000     0.0330885  
H21      H      0.319110000000     0.063630000000     0.885600000000     0.0335725  
H22      H      0.219400000000     0.462100000000     0.885600000000     0.0333221  
H23      H      0.218500000000     0.463010000000     0.809260000000     0.0328617  
H24      H      0.320020000000     0.062730000000     0.809260000000     0.0330572  
H25      H      0.451720000000     0.321020000000     0.014000000000     0.0307697  
H26      H      0.393550000000     0.204680000000     0.014220000000     0.0307668  
H27      H      0.336790000000     0.204680000000     0.014000000000     0.0308142  
H28      H      0.394960000000     0.321020000000     0.014220000000     0.0307914  
H29      H      0.144960000000     0.321020000000     0.014180000000     0.030695   
H30      H      0.086790000000     0.204680000000     0.013950000000     0.0293271  
H31      H      0.143550000000     0.204680000000     0.014180000000     0.0303281  
H32      H      0.201720000000     0.321020000000     0.013960000000     0.0307642  
H33      H      0.069100000000     0.313620000000     0.885590000000     0.0330176  
H34      H      0.469390000000     0.212090000000     0.885590000000     0.0335765  
H35      H      0.468480000000     0.212990000000     0.809250000000     0.0330413  
H36      H      0.070010000000     0.312710000000     0.809250000000     0.0329494  
H37      H      0.451720000000     0.071020000000     0.013960000000     0.0307651  
H38      H      0.393560000000     0.454680000000     0.014200000000     0.030788   
H39      H      0.336800000000     0.454680000000     0.013970000000     0.0307984  
H40      H      0.394960000000     0.071020000000     0.014190000000     0.030769   
H41      H      0.086800000000     0.454680000000     0.014000000000     0.0293111  
H42      H      0.144960000000     0.071020000000     0.014220000000     0.0306815  
H43      H      0.201720000000     0.071020000000     0.013990000000     0.030776   
H44      H      0.143560000000     0.454680000000     0.014230000000     0.0303209  
H45      H      0.469410000000     0.462070000000     0.885610000000     0.0335688  
H46      H      0.069110000000     0.063610000000     0.885590000000     0.0330145  
H47      H      0.070020000000     0.062690000000     0.809250000000     0.0329592  
H48      H      0.468490000000     0.462970000000     0.809270000000     0.0330734  
H49      H      0.319120000000     0.261970000000     0.475910000000     0.0328058  
H50      H      0.219400000000     0.263790000000     0.475930000000     0.0325945  
H51      H      0.218500000000     0.261970000000     0.552270000000     0.032571   
H52      H      0.320030000000     0.263780000000     0.552250000000     0.0328379  
H53      H      0.268330000000     0.312720000000     0.218920000000     0.0328459  
H54      H      0.270150000000     0.213010000000     0.218930000000     0.0328458  
H55      H      0.268340000000     0.212090000000     0.142600000000     0.0328374  
H56      H      0.270150000000     0.313630000000     0.142580000000     0.0328179  
H57      H      0.319130000000     0.011920000000     0.475930000000     0.0327149  
H58      H      0.219410000000     0.513740000000     0.475930000000     0.0325739  
H59      H      0.218500000000     0.511930000000     0.552260000000     0.0325902  
H60      H      0.320040000000     0.013750000000     0.552260000000     0.0327738  
H61      H      0.268360000000     0.062690000000     0.218930000000     0.03282    
H62      H      0.270180000000     0.462970000000     0.218930000000     0.0328367  
H63      H      0.268360000000     0.462070000000     0.142590000000     0.0328311  
H64      H      0.270170000000     0.063600000000     0.142600000000     0.0328172  
H65      H      0.968490000000     0.261920000000     0.552250000000     0.0327457  
H66      H      0.570020000000     0.263730000000     0.552270000000     0.0327816  
H67      H      0.569120000000     0.261910000000     0.475930000000     0.0327835  
H68      H      0.969400000000     0.263730000000     0.475910000000     0.034179   
H69      H      0.393560000000     0.195290000000     0.347300000000     0.0312268  
H70      H      0.451730000000     0.137120000000     0.347530000000     0.0312281  
H71      H      0.394970000000     0.080360000000     0.347300000000     0.0311668  
H72      H      0.336800000000     0.138530000000     0.347530000000     0.0312378  
H73      H      0.144970000000     0.330360000000     0.347320000000     0.0311447  
H74      H      0.086800000000     0.388530000000     0.347550000000     0.0297566  
H75      H      0.143560000000     0.445290000000     0.347320000000     0.0307633  
H76      H      0.201730000000     0.387120000000     0.347550000000     0.0312136  
H77      H      0.518370000000     0.312700000000     0.218930000000     0.0327936  
H78      H      0.020180000000     0.212980000000     0.218920000000     0.0302824  
H79      H      0.018370000000     0.212080000000     0.142580000000     0.030792   
H80      H      0.520180000000     0.313610000000     0.142600000000     0.0328083  
H81      H      0.570010000000     0.513770000000     0.552260000000     0.0327415  
H82      H      0.968480000000     0.011950000000     0.552270000000     0.0326591  
H83      H      0.969390000000     0.013780000000     0.475930000000     0.0340918  
H84      H      0.569110000000     0.511960000000     0.475930000000     0.0327748  
H85      H      0.393540000000     0.445340000000     0.347310000000     0.0312053  
H86      H      0.451710000000     0.387170000000     0.347540000000     0.0312261  
H87      H      0.394960000000     0.330410000000     0.347310000000     0.0312235  
H88      H      0.336790000000     0.388580000000     0.347530000000     0.0312309  
H89      H      0.143540000000     0.195340000000     0.347310000000     0.0307647  
H90      H      0.201710000000     0.137170000000     0.347540000000     0.0312072  
H91      H      0.144950000000     0.080410000000     0.347310000000     0.0310896  
H92      H      0.086780000000     0.138580000000     0.347540000000     0.0297432  
H93      H      0.520160000000     0.463010000000     0.218940000000     0.0328058  
H94      H      0.018340000000     0.062730000000     0.218920000000     0.0308245  
H95      H      0.020150000000     0.063630000000     0.142580000000     0.0302735  
H96      H      0.518350000000     0.462100000000     0.142610000000     0.0327863  
H97      H      0.211100000000     0.887150000000     0.680660000000     0.0312027  
H98      H      0.327440000000     0.945320000000     0.680890000000     0.0313364  
H99      H      0.327440000000     0.888570000000     0.680670000000     0.0312833  
H100     H      0.211100000000     0.830400000000     0.680890000000     0.0312229  
H101     H      0.327440000000     0.638560000000     0.680630000000     0.0312754  
H102     H      0.211100000000     0.580390000000     0.680860000000     0.0312384  
H103     H      0.211100000000     0.637150000000     0.680630000000     0.031172   
H104     H      0.327440000000     0.695320000000     0.680860000000     0.0312676  
H105     H      0.077420000000     0.945300000000     0.680860000000     0.0314489  
H106     H      0.461080000000     0.887130000000     0.680630000000     0.031269   
H107     H      0.461080000000     0.830380000000     0.680860000000     0.0312938  
H108     H      0.077420000000     0.888550000000     0.680630000000     0.0313877  
H109     H      0.077420000000     0.638550000000     0.680670000000     0.0313571  
H110     H      0.461080000000     0.580380000000     0.680900000000     0.031262   
H111     H      0.461080000000     0.637140000000     0.680680000000     0.0312706  
H112     H      0.077420000000     0.695300000000     0.680900000000     0.0313663  
H113     H      0.319130000000     0.813610000000     0.885600000000     0.0335766  
H114     H      0.219410000000     0.712080000000     0.885600000000     0.0333345  
H115     H      0.218510000000     0.712990000000     0.809260000000     0.0328471  
H116     H      0.320040000000     0.812710000000     0.809270000000     0.0330877  
H117     H      0.319120000000     0.563630000000     0.885610000000     0.0335826  
H118     H      0.219390000000     0.962100000000     0.885590000000     0.033308   
H119     H      0.218490000000     0.963010000000     0.809250000000     0.0328328  
H120     H      0.320030000000     0.562720000000     0.809270000000     0.0330827  
H121     H      0.451720000000     0.821020000000     0.014010000000     0.0307735  
H122     H      0.393550000000     0.704680000000     0.014240000000     0.0307864  
H123     H      0.336790000000     0.704680000000     0.014010000000     0.0307952  
H124     H      0.394960000000     0.821020000000     0.014230000000     0.0307924  
H125     H      0.144960000000     0.821020000000     0.014200000000     0.0306993  
H126     H      0.086790000000     0.704680000000     0.013970000000     0.029311   
H127     H      0.143550000000     0.704680000000     0.014190000000     0.0303294  
H128     H      0.201720000000     0.821020000000     0.013970000000     0.0307653  
H129     H      0.069100000000     0.813620000000     0.885600000000     0.0330165  
H130     H      0.469390000000     0.712090000000     0.885610000000     0.0335692  
H131     H      0.468480000000     0.712990000000     0.809270000000     0.0330583  
H132     H      0.070010000000     0.812710000000     0.809270000000     0.0329679  
H133     H      0.451730000000     0.571020000000     0.013970000000     0.0308012  
H134     H      0.393550000000     0.954680000000     0.014190000000     0.030759   
H135     H      0.336790000000     0.954680000000     0.013960000000     0.0307661  
H136     H      0.394970000000     0.571020000000     0.014200000000     0.0307688  
H137     H      0.086790000000     0.954680000000     0.013990000000     0.0292927  
H138     H      0.144970000000     0.571020000000     0.014230000000     0.0306998  
H139     H      0.201730000000     0.571020000000     0.014000000000     0.0307951  
H140     H      0.143550000000     0.954680000000     0.014220000000     0.0302935  
H141     H      0.469400000000     0.962070000000     0.885600000000     0.0335614  
H142     H      0.069120000000     0.563610000000     0.885600000000     0.0330028  
H143     H      0.070030000000     0.562690000000     0.809260000000     0.0329728  
H144     H      0.468490000000     0.962980000000     0.809260000000     0.0330481  
H145     H      0.319120000000     0.761970000000     0.475920000000     0.0328203  
H146     H      0.219400000000     0.763790000000     0.475940000000     0.0326049  
H147     H      0.218500000000     0.761970000000     0.552280000000     0.0325795  
H148     H      0.320030000000     0.763780000000     0.552260000000     0.0328523  
H149     H      0.268330000000     0.812720000000     0.218930000000     0.0328172  
H150     H      0.270150000000     0.713000000000     0.218940000000     0.0328196  
H151     H      0.268340000000     0.712090000000     0.142610000000     0.0328473  
H152     H      0.270150000000     0.813620000000     0.142590000000     0.0328654  
H153     H      0.319130000000     0.511920000000     0.475940000000     0.0327911  
H154     H      0.219410000000     0.013740000000     0.475920000000     0.0325262  
H155     H      0.218500000000     0.011930000000     0.552250000000     0.0324978  
H156     H      0.320040000000     0.513750000000     0.552270000000     0.0328366  
H157     H      0.268360000000     0.562690000000     0.218940000000     0.0328423  
H158     H      0.270170000000     0.962970000000     0.218920000000     0.0328279  
H159     H      0.268350000000     0.962070000000     0.142580000000     0.0328236  
H160     H      0.270180000000     0.563600000000     0.142610000000     0.032824   
H161     H      0.968490000000     0.761920000000     0.552260000000     0.0327517  
H162     H      0.570020000000     0.763730000000     0.552280000000     0.0327805  
H163     H      0.569120000000     0.761910000000     0.475940000000     0.0327744  
H164     H      0.969400000000     0.763730000000     0.475930000000     0.0341668  
H165     H      0.393560000000     0.695290000000     0.347320000000     0.0312275  
H166     H      0.451730000000     0.637120000000     0.347540000000     0.0311789  
H167     H      0.394970000000     0.580360000000     0.347320000000     0.0312387  
H168     H      0.336800000000     0.638530000000     0.347540000000     0.031231   
H169     H      0.144970000000     0.830360000000     0.347320000000     0.0311592  
H170     H      0.086800000000     0.888530000000     0.347550000000     0.0297676  
H171     H      0.143560000000     0.945290000000     0.347320000000     0.0308735  
H172     H      0.201730000000     0.887120000000     0.347540000000     0.0311981  
H173     H      0.518370000000     0.812700000000     0.218950000000     0.0328159  
H174     H      0.020180000000     0.712980000000     0.218930000000     0.0302915  
H175     H      0.018360000000     0.712080000000     0.142590000000     0.0308522  
H176     H      0.520180000000     0.813610000000     0.142610000000     0.0328335  
H177     H      0.570010000000     0.013760000000     0.552250000000     0.0327008  
H178     H      0.968480000000     0.511950000000     0.552270000000     0.0327425  
H179     H      0.969390000000     0.513780000000     0.475940000000     0.0341533  
H180     H      0.569110000000     0.011960000000     0.475920000000     0.0326551  
H181     H      0.393540000000     0.945340000000     0.347310000000     0.03131    
H182     H      0.451710000000     0.887170000000     0.347540000000     0.0312439  
H183     H      0.394960000000     0.830410000000     0.347310000000     0.0312264  
H184     H      0.336780000000     0.888580000000     0.347540000000     0.031254   
H185     H      0.143540000000     0.695340000000     0.347330000000     0.0307568  
H186     H      0.201710000000     0.637170000000     0.347560000000     0.0312195  
H187     H      0.144960000000     0.580410000000     0.347330000000     0.0311256  
H188     H      0.086790000000     0.638580000000     0.347550000000     0.0297417  
H189     H      0.520160000000     0.963010000000     0.218930000000     0.0327758  
H190     H      0.018350000000     0.562730000000     0.218930000000     0.0308119  
H191     H      0.020170000000     0.563630000000     0.142590000000     0.0302904  
H192     H      0.518340000000     0.962100000000     0.142600000000     0.0327729  
H193     H      0.711100000000     0.387150000000     0.680670000000     0.0312142  
H194     H      0.827440000000     0.445320000000     0.680900000000     0.0315342  
H195     H      0.827440000000     0.388560000000     0.680670000000     0.0315445  
H196     H      0.711100000000     0.330390000000     0.680890000000     0.0312523  
H197     H      0.827440000000     0.138560000000     0.680620000000     0.0315415  
H198     H      0.711100000000     0.080390000000     0.680850000000     0.0311894  
H199     H      0.711100000000     0.137150000000     0.680620000000     0.0312035  
H200     H      0.827440000000     0.195320000000     0.680850000000     0.0315314  
H201     H      0.577420000000     0.445310000000     0.680860000000     0.0312255  
H202     H      0.961080000000     0.387140000000     0.680630000000     0.0303127  
H203     H      0.961080000000     0.330380000000     0.680850000000     0.0302986  
H204     H      0.577420000000     0.388550000000     0.680620000000     0.0312146  
H205     H      0.577420000000     0.138550000000     0.680660000000     0.0312131  
H206     H      0.961080000000     0.080380000000     0.680890000000     0.0302735  
H207     H      0.961080000000     0.137130000000     0.680660000000     0.0302832  
H208     H      0.577420000000     0.195300000000     0.680890000000     0.0312236  
H209     H      0.819130000000     0.313610000000     0.885590000000     0.0342777  
H210     H      0.719410000000     0.212080000000     0.885590000000     0.0335371  
H211     H      0.718510000000     0.212990000000     0.809250000000     0.0330279  
H212     H      0.820040000000     0.312700000000     0.809260000000     0.0336391  
H213     H      0.819110000000     0.063630000000     0.885600000000     0.0342817  
H214     H      0.719400000000     0.462100000000     0.885600000000     0.0335379  
H215     H      0.718500000000     0.463010000000     0.809260000000     0.0330306  
H216     H      0.820020000000     0.062730000000     0.809260000000     0.0336066  
H217     H      0.951720000000     0.321020000000     0.014000000000     0.0351877  
H218     H      0.893550000000     0.204680000000     0.014220000000     0.0324455  
H219     H      0.836790000000     0.204680000000     0.014000000000     0.0312469  
H220     H      0.894960000000     0.321020000000     0.014220000000     0.0329576  
H221     H      0.644960000000     0.321020000000     0.014180000000     0.030769   
H222     H      0.586790000000     0.204680000000     0.013950000000     0.030763   
H223     H      0.643550000000     0.204680000000     0.014180000000     0.0307434  
H224     H      0.701720000000     0.321020000000     0.013960000000     0.0308674  
H225     H      0.569100000000     0.313620000000     0.885590000000     0.0335353  
H226     H      0.969380000000     0.212090000000     0.885590000000     0.0349176  
H227     H      0.968480000000     0.212990000000     0.809250000000     0.0329638  
H228     H      0.570010000000     0.312710000000     0.809250000000     0.0330312  
H229     H      0.951720000000     0.071020000000     0.013960000000     0.0352031  
H230     H      0.893560000000     0.454680000000     0.014200000000     0.0324579  
H231     H      0.836800000000     0.454680000000     0.013970000000     0.0312313  
H232     H      0.894960000000     0.071020000000     0.014190000000     0.0329298  
H233     H      0.586800000000     0.454680000000     0.014000000000     0.0307484  
H234     H      0.644960000000     0.071020000000     0.014220000000     0.0307696  
H235     H      0.701720000000     0.071020000000     0.013990000000     0.0308873  
H236     H      0.643560000000     0.454680000000     0.014230000000     0.0307469  
H237     H      0.969400000000     0.462070000000     0.885610000000     0.034922   
H238     H      0.569110000000     0.063610000000     0.885590000000     0.0335361  
H239     H      0.570020000000     0.062690000000     0.809250000000     0.0330115  
H240     H      0.968490000000     0.462970000000     0.809270000000     0.0329808  
H241     H      0.819120000000     0.261970000000     0.475910000000     0.0335147  
H242     H      0.719400000000     0.263790000000     0.475930000000     0.0327759  
H243     H      0.718500000000     0.261970000000     0.552270000000     0.03279    
H244     H      0.820030000000     0.263780000000     0.552250000000     0.0334058  
H245     H      0.768330000000     0.312720000000     0.218920000000     0.0332477  
H246     H      0.770150000000     0.213010000000     0.218930000000     0.0332697  
H247     H      0.768340000000     0.212090000000     0.142600000000     0.0332379  
H248     H      0.770150000000     0.313630000000     0.142580000000     0.0332428  
H249     H      0.819130000000     0.011920000000     0.475930000000     0.0334267  
H250     H      0.719410000000     0.513740000000     0.475930000000     0.0327837  
H251     H      0.718500000000     0.511930000000     0.552260000000     0.0327794  
H252     H      0.820040000000     0.013750000000     0.552260000000     0.0333242  
H253     H      0.768360000000     0.062690000000     0.218940000000     0.0332273  
H254     H      0.770180000000     0.462970000000     0.218930000000     0.0332528  
H255     H      0.768360000000     0.462070000000     0.142590000000     0.0332498  
H256     H      0.770170000000     0.063600000000     0.142600000000     0.0332417  
H257     H      0.468490000000     0.261920000000     0.552250000000     0.0327997  
H258     H      0.070020000000     0.263730000000     0.552270000000     0.0327087  
H259     H      0.069120000000     0.261910000000     0.475930000000     0.0322645  
H260     H      0.469400000000     0.263730000000     0.475910000000     0.0328404  
H261     H      0.893560000000     0.195290000000     0.347300000000     0.0329208  
H262     H      0.951730000000     0.137120000000     0.347530000000     0.0356376  
H263     H      0.894970000000     0.080360000000     0.347300000000     0.0333246  
H264     H      0.836800000000     0.138530000000     0.347530000000     0.031656   
H265     H      0.644970000000     0.330360000000     0.347320000000     0.0312167  
H266     H      0.586800000000     0.388530000000     0.347550000000     0.0311965  
H267     H      0.643560000000     0.445290000000     0.347320000000     0.0311805  
H268     H      0.701730000000     0.387120000000     0.347550000000     0.031315   
H269     H      0.018370000000     0.312700000000     0.218930000000     0.0308194  
H270     H      0.520180000000     0.212980000000     0.218920000000     0.0328138  
H271     H      0.518370000000     0.212080000000     0.142580000000     0.0327685  
H272     H      0.020180000000     0.313610000000     0.142600000000     0.0302792  
H273     H      0.070010000000     0.513770000000     0.552260000000     0.0326792  
H274     H      0.468480000000     0.011950000000     0.552270000000     0.0327485  
H275     H      0.469390000000     0.013780000000     0.475930000000     0.0327216  
H276     H      0.069110000000     0.511960000000     0.475930000000     0.0322517  
H277     H      0.893540000000     0.445340000000     0.347310000000     0.0328841  
H278     H      0.951710000000     0.387170000000     0.347540000000     0.0356223  
H279     H      0.894960000000     0.330410000000     0.347310000000     0.0333929  
H280     H      0.836790000000     0.388580000000     0.347530000000     0.0316554  
H281     H      0.643540000000     0.195340000000     0.347310000000     0.0311799  
H282     H      0.701710000000     0.137170000000     0.347540000000     0.0313099  
H283     H      0.644960000000     0.080410000000     0.347310000000     0.0311404  
H284     H      0.586780000000     0.138580000000     0.347540000000     0.0311802  
H285     H      0.020160000000     0.463010000000     0.218940000000     0.0302789  
H286     H      0.518340000000     0.062730000000     0.218920000000     0.0328056  
H287     H      0.520150000000     0.063630000000     0.142580000000     0.0327932  
H288     H      0.018350000000     0.462100000000     0.142610000000     0.0308084  
H289     H      0.711100000000     0.887150000000     0.680660000000     0.0312233  
H290     H      0.827440000000     0.945320000000     0.680890000000     0.0316001  
H291     H      0.827440000000     0.888570000000     0.680670000000     0.0315632  
H292     H      0.711100000000     0.830400000000     0.680900000000     0.0312498  
H293     H      0.827440000000     0.638560000000     0.680640000000     0.0315537  
H294     H      0.711100000000     0.580390000000     0.680860000000     0.0312591  
H295     H      0.711100000000     0.637150000000     0.680640000000     0.0311939  
H296     H      0.827440000000     0.695320000000     0.680860000000     0.0315464  
H297     H      0.577420000000     0.945300000000     0.680860000000     0.031286   
H298     H      0.961080000000     0.887130000000     0.680630000000     0.0303148  
H299     H      0.961080000000     0.830380000000     0.680860000000     0.0303419  
H300     H      0.577420000000     0.888550000000     0.680630000000     0.0312389  
H301     H      0.577420000000     0.638550000000     0.680670000000     0.0312237  
H302     H      0.961080000000     0.580380000000     0.680900000000     0.0303014  
H303     H      0.961080000000     0.637130000000     0.680680000000     0.030302   
H304     H      0.577420000000     0.695310000000     0.680900000000     0.0312309  
H305     H      0.819130000000     0.813610000000     0.885600000000     0.0342828  
H306     H      0.719410000000     0.712080000000     0.885600000000     0.033532   
H307     H      0.718510000000     0.712990000000     0.809260000000     0.0330475  
H308     H      0.820040000000     0.812710000000     0.809270000000     0.0336405  
H309     H      0.819120000000     0.563630000000     0.885610000000     0.0342823  
H310     H      0.719390000000     0.962100000000     0.885590000000     0.0335098  
H311     H      0.718490000000     0.963010000000     0.809250000000     0.0330246  
H312     H      0.820030000000     0.562720000000     0.809270000000     0.0336273  
H313     H      0.951720000000     0.821020000000     0.014010000000     0.0351856  
H314     H      0.893550000000     0.704680000000     0.014240000000     0.0324488  
H315     H      0.836790000000     0.704680000000     0.014010000000     0.0312462  
H316     H      0.894960000000     0.821020000000     0.014240000000     0.0329548  
H317     H      0.644960000000     0.821020000000     0.014200000000     0.0307671  
H318     H      0.586790000000     0.704680000000     0.013970000000     0.030766   
H319     H      0.643550000000     0.704680000000     0.014190000000     0.0307267  
H320     H      0.701720000000     0.821020000000     0.013970000000     0.0308654  
H321     H      0.569100000000     0.813620000000     0.885600000000     0.0335304  
H322     H      0.969390000000     0.712090000000     0.885610000000     0.0349339  
H323     H      0.968480000000     0.712990000000     0.809270000000     0.0329736  
H324     H      0.570010000000     0.812710000000     0.809270000000     0.0330408  
H325     H      0.951730000000     0.571020000000     0.013970000000     0.0352325  
H326     H      0.893550000000     0.954680000000     0.014190000000     0.0324276  
H327     H      0.836790000000     0.954680000000     0.013960000000     0.0311995  
H328     H      0.894970000000     0.571020000000     0.014200000000     0.0329524  
H329     H      0.586790000000     0.954680000000     0.013990000000     0.0307219  
H330     H      0.644970000000     0.571020000000     0.014230000000     0.0307734  
H331     H      0.701730000000     0.571020000000     0.014000000000     0.0308915  
H332     H      0.643550000000     0.954680000000     0.014220000000     0.0307128  
H333     H      0.969400000000     0.962070000000     0.885600000000     0.0349201  
H334     H      0.569120000000     0.563610000000     0.885600000000     0.0335375  
H335     H      0.570030000000     0.562690000000     0.809260000000     0.0330157  
H336     H      0.968490000000     0.962980000000     0.809260000000     0.0329527  
H337     H      0.819120000000     0.761970000000     0.475920000000     0.033537   
H338     H      0.719400000000     0.763790000000     0.475940000000     0.0327923  
H339     H      0.718500000000     0.761970000000     0.552280000000     0.0327897  
H340     H      0.820030000000     0.763780000000     0.552260000000     0.0333856  
H341     H      0.768330000000     0.812720000000     0.218930000000     0.033219   
H342     H      0.770150000000     0.713000000000     0.218940000000     0.0332439  
H343     H      0.768330000000     0.712090000000     0.142610000000     0.0332569  
H344     H      0.770150000000     0.813620000000     0.142590000000     0.0332898  
H345     H      0.819130000000     0.511920000000     0.475940000000     0.0335239  
H346     H      0.719410000000     0.013740000000     0.475920000000     0.0327162  
H347     H      0.718500000000     0.011930000000     0.552250000000     0.0326841  
H348     H      0.820040000000     0.513750000000     0.552280000000     0.0333639  
H349     H      0.768360000000     0.562690000000     0.218940000000     0.0332461  
H350     H      0.770170000000     0.962970000000     0.218920000000     0.0332522  
H351     H      0.768350000000     0.962070000000     0.142580000000     0.033222   
H352     H      0.770180000000     0.563600000000     0.142610000000     0.0332511  
H353     H      0.468490000000     0.761920000000     0.552260000000     0.0328002  
H354     H      0.070020000000     0.763730000000     0.552280000000     0.0326989  
H355     H      0.069120000000     0.761910000000     0.475940000000     0.0322585  
H356     H      0.469400000000     0.763730000000     0.475930000000     0.0328268  
H357     H      0.893560000000     0.695290000000     0.347320000000     0.0328832  
H358     H      0.951730000000     0.637120000000     0.347540000000     0.0356243  
H359     H      0.894970000000     0.580360000000     0.347320000000     0.0333939  
H360     H      0.836800000000     0.638530000000     0.347550000000     0.031671   
H361     H      0.644970000000     0.830360000000     0.347320000000     0.0312372  
H362     H      0.586800000000     0.888530000000     0.347550000000     0.0312129  
H363     H      0.643560000000     0.945290000000     0.347320000000     0.0312824  
H364     H      0.701730000000     0.887120000000     0.347540000000     0.0312977  
H365     H      0.018370000000     0.812700000000     0.218950000000     0.0308255  
H366     H      0.520180000000     0.712980000000     0.218930000000     0.0328227  
H367     H      0.518360000000     0.712080000000     0.142590000000     0.0328351  
H368     H      0.020180000000     0.813610000000     0.142610000000     0.0303178  
H369     H      0.070010000000     0.013770000000     0.552250000000     0.032643   
H370     H      0.468480000000     0.511950000000     0.552280000000     0.0328223  
H371     H      0.469390000000     0.513780000000     0.475940000000     0.0328175  
H372     H      0.069110000000     0.011960000000     0.475920000000     0.032153   
H373     H      0.893540000000     0.945340000000     0.347310000000     0.032954   
H374     H      0.951710000000     0.887170000000     0.347540000000     0.0356388  
H375     H      0.894950000000     0.830410000000     0.347310000000     0.0333989  
H376     H      0.836790000000     0.888580000000     0.347540000000     0.0316898  
H377     H      0.643540000000     0.695340000000     0.347330000000     0.0311923  
H378     H      0.701710000000     0.637170000000     0.347560000000     0.0313055  
H379     H      0.644950000000     0.580410000000     0.347330000000     0.0312228  
H380     H      0.586790000000     0.638580000000     0.347550000000     0.0311751  
H381     H      0.020150000000     0.963010000000     0.218930000000     0.0302591  
H382     H      0.518340000000     0.562730000000     0.218930000000     0.0327968  
H383     H      0.520160000000     0.563630000000     0.142590000000     0.0328006  
H384     H      0.018340000000     0.962100000000     0.142600000000     0.0307994  
N1       N      0.269270000000     0.420740000000     0.680780000000    -0.189596   
N2       N      0.269270000000     0.354970000000     0.680780000000    -0.189676   
N3       N      0.269270000000     0.104970000000     0.680740000000    -0.189685   
N4       N      0.269270000000     0.170740000000     0.680740000000    -0.189598   
N5       N      0.519250000000     0.420730000000     0.680750000000    -0.189639   
N6       N      0.519250000000     0.354960000000     0.680740000000    -0.189564   
N7       N      0.519250000000     0.104960000000     0.680770000000    -0.189553   
N8       N      0.519250000000     0.170730000000     0.680770000000    -0.189619   
N9       N      0.269270000000     0.262850000000     0.891220000000    -0.189634   
N10      N      0.269270000000     0.262850000000     0.803630000000    -0.189994   
N11      N      0.269260000000     0.512860000000     0.891230000000    -0.18964    
N12      N      0.269260000000     0.512870000000     0.803640000000    -0.189938   
N13      N      0.427140000000     0.262850000000     0.014110000000    -0.189667   
N14      N      0.361370000000     0.262850000000     0.014110000000    -0.189629   
N15      N      0.111370000000     0.262850000000     0.014070000000    -0.189461   
N16      N      0.177140000000     0.262850000000     0.014070000000    -0.189667   
N17      N      0.519250000000     0.262850000000     0.891220000000    -0.189613   
N18      N      0.519240000000     0.262850000000     0.803630000000    -0.189961   
N19      N      0.427150000000     0.512850000000     0.014090000000    -0.189689   
N20      N      0.361380000000     0.512850000000     0.014090000000    -0.189631   
N21      N      0.111380000000     0.512850000000     0.014110000000    -0.189442   
N22      N      0.177150000000     0.512850000000     0.014110000000    -0.189713   
N23      N      0.019250000000     0.012840000000     0.891220000000    -0.199809   
N24      N      0.019250000000     0.012830000000     0.803630000000    -0.196888   
N25      N      0.269260000000     0.262880000000     0.470300000000    -0.190003   
N26      N      0.269260000000     0.262880000000     0.557890000000    -0.190064   
N27      N      0.269240000000     0.262870000000     0.224550000000    -0.190024   
N28      N      0.269240000000     0.262860000000     0.136960000000    -0.189952   
N29      N      0.269270000000     0.512830000000     0.470300000000    -0.190136   
N30      N      0.269270000000     0.512840000000     0.557890000000    -0.189966   
N31      N      0.269270000000     0.512830000000     0.224560000000    -0.190039   
N32      N      0.269270000000     0.512840000000     0.136970000000    -0.189969   
N33      N      0.519250000000     0.262830000000     0.557890000000    -0.190062   
N34      N      0.519260000000     0.262820000000     0.470290000000    -0.190016   
N35      N      0.427150000000     0.170710000000     0.347420000000    -0.189542   
N36      N      0.361380000000     0.104940000000     0.347420000000    -0.189619   
N37      N      0.111380000000     0.354940000000     0.347430000000    -0.189441   
N38      N      0.177150000000     0.420710000000     0.347430000000    -0.189575   
N39      N      0.519270000000     0.262840000000     0.224550000000    -0.19005    
N40      N      0.519270000000     0.262840000000     0.136960000000    -0.189979   
N41      N      0.019250000000     0.012860000000     0.557890000000    -0.19672    
N42      N      0.519250000000     0.012870000000     0.470300000000    -0.190018   
N43      N      0.427130000000     0.420760000000     0.347420000000    -0.189602   
N44      N      0.361360000000     0.354990000000     0.347420000000    -0.189639   
N45      N      0.177130000000     0.170760000000     0.347430000000    -0.189574   
N46      N      0.111360000000     0.104990000000     0.347430000000    -0.189479   
N47      N      0.519250000000     0.012870000000     0.224550000000    -0.190226   
N48      N      0.019250000000     0.012860000000     0.136960000000    -0.190497   
N49      N      0.269270000000     0.920740000000     0.680780000000    -0.189577   
N50      N      0.269270000000     0.854970000000     0.680780000000    -0.189664   
N51      N      0.269270000000     0.604970000000     0.680750000000    -0.189612   
N52      N      0.269270000000     0.670740000000     0.680750000000    -0.18957    
N53      N      0.519250000000     0.920730000000     0.680740000000    -0.189655   
N54      N      0.519250000000     0.854950000000     0.680750000000    -0.189619   
N55      N      0.519250000000     0.604960000000     0.680790000000    -0.189559   
N56      N      0.519250000000     0.670730000000     0.680790000000    -0.18956    
N57      N      0.269270000000     0.762850000000     0.891230000000    -0.189634   
N58      N      0.269270000000     0.762850000000     0.803640000000    -0.189991   
N59      N      0.269250000000     0.012860000000     0.891220000000    -0.189816   
N60      N      0.269260000000     0.012870000000     0.803630000000    -0.190179   
N61      N      0.427140000000     0.762850000000     0.014120000000    -0.189652   
N62      N      0.361370000000     0.762850000000     0.014120000000    -0.189637   
N63      N      0.111370000000     0.762850000000     0.014080000000    -0.189467   
N64      N      0.177140000000     0.762850000000     0.014080000000    -0.189673   
N65      N      0.519240000000     0.762860000000     0.891230000000    -0.189627   
N66      N      0.519240000000     0.762860000000     0.803640000000    -0.189998   
N67      N      0.427140000000     0.012850000000     0.014080000000    -0.189889   
N68      N      0.361370000000     0.012850000000     0.014080000000    -0.189815   
N69      N      0.111370000000     0.012850000000     0.014100000000    -0.189636   
N70      N      0.177140000000     0.012850000000     0.014100000000    -0.189913   
N71      N      0.019260000000     0.512840000000     0.891230000000    -0.199715   
N72      N      0.019260000000     0.512830000000     0.803640000000    -0.19673    
N73      N      0.269260000000     0.762880000000     0.470300000000    -0.190011   
N74      N      0.269260000000     0.762880000000     0.557890000000    -0.18994    
N75      N      0.269240000000     0.762870000000     0.224560000000    -0.190083   
N76      N      0.269240000000     0.762860000000     0.136970000000    -0.189874   
N77      N      0.269270000000     0.012830000000     0.470300000000    -0.189889   
N78      N      0.269270000000     0.012840000000     0.557890000000    -0.189974   
N79      N      0.269260000000     0.012830000000     0.224550000000    -0.19022    
N80      N      0.269260000000     0.012840000000     0.136960000000    -0.190139   
N81      N      0.519250000000     0.762820000000     0.557900000000    -0.19006    
N82      N      0.519260000000     0.762820000000     0.470310000000    -0.190039   
N83      N      0.427150000000     0.670710000000     0.347430000000    -0.189584   
N84      N      0.361380000000     0.604940000000     0.347430000000    -0.189631   
N85      N      0.111380000000     0.854940000000     0.347440000000    -0.189424   
N86      N      0.177150000000     0.920710000000     0.347430000000    -0.189552   
N87      N      0.519270000000     0.762840000000     0.224560000000    -0.189887   
N88      N      0.519270000000     0.762840000000     0.136970000000    -0.189875   
N89      N      0.019250000000     0.512860000000     0.557890000000    -0.196746   
N90      N      0.519250000000     0.512870000000     0.470300000000    -0.190094   
N91      N      0.427130000000     0.920760000000     0.347420000000    -0.189525   
N92      N      0.361360000000     0.854990000000     0.347420000000    -0.189641   
N93      N      0.177130000000     0.670760000000     0.347440000000    -0.189574   
N94      N      0.111360000000     0.604990000000     0.347440000000    -0.189467   
N95      N      0.519250000000     0.512870000000     0.224560000000    -0.190059   
N96      N      0.019260000000     0.512860000000     0.136970000000    -0.190322   
N97      N      0.769270000000     0.420740000000     0.680780000000    -0.189566   
N98      N      0.769270000000     0.354970000000     0.680780000000    -0.189643   
N99      N      0.769270000000     0.104970000000     0.680740000000    -0.189655   
N100     N      0.769270000000     0.170740000000     0.680740000000    -0.189565   
N101     N      0.019250000000     0.420730000000     0.680750000000    -0.196591   
N102     N      0.019250000000     0.354960000000     0.680740000000    -0.196517   
N103     N      0.019250000000     0.104950000000     0.680770000000    -0.196614   
N104     N      0.019250000000     0.170730000000     0.680770000000    -0.19661    
N105     N      0.769270000000     0.262850000000     0.891220000000    -0.189569   
N106     N      0.769270000000     0.262850000000     0.803630000000    -0.189953   
N107     N      0.769260000000     0.512860000000     0.891230000000    -0.189575   
N108     N      0.769260000000     0.512870000000     0.803640000000    -0.189963   
N109     N      0.927140000000     0.262850000000     0.014110000000    -0.187896   
N110     N      0.861370000000     0.262850000000     0.014110000000    -0.189428   
N111     N      0.611370000000     0.262850000000     0.014070000000    -0.189651   
N112     N      0.677140000000     0.262850000000     0.014070000000    -0.189646   
N113     N      0.019240000000     0.262850000000     0.891220000000    -0.199747   
N114     N      0.019240000000     0.262850000000     0.803630000000    -0.196718   
N115     N      0.927150000000     0.512850000000     0.014090000000    -0.187854   
N116     N      0.861380000000     0.512850000000     0.014090000000    -0.189418   
N117     N      0.611380000000     0.512850000000     0.014110000000    -0.189633   
N118     N      0.677150000000     0.512850000000     0.014110000000    -0.189622   
N119     N      0.519250000000     0.012840000000     0.891220000000    -0.18973    
N120     N      0.519250000000     0.012840000000     0.803630000000    -0.190177   
N121     N      0.769260000000     0.262880000000     0.470300000000    -0.190012   
N122     N      0.769260000000     0.262880000000     0.557890000000    -0.189932   
N123     N      0.769240000000     0.262870000000     0.224550000000    -0.18989    
N124     N      0.769240000000     0.262860000000     0.136960000000    -0.189818   
N125     N      0.769270000000     0.512830000000     0.470300000000    -0.190062   
N126     N      0.769270000000     0.512840000000     0.557890000000    -0.189956   
N127     N      0.769270000000     0.512830000000     0.224560000000    -0.189907   
N128     N      0.769270000000     0.512840000000     0.136970000000    -0.189817   
N129     N      0.019250000000     0.262820000000     0.557890000000    -0.196801   
N130     N      0.019260000000     0.262820000000     0.470290000000    -0.200188   
N131     N      0.927150000000     0.170710000000     0.347420000000    -0.187751   
N132     N      0.861380000000     0.104940000000     0.347420000000    -0.189425   
N133     N      0.611380000000     0.354940000000     0.347430000000    -0.189631   
N134     N      0.677150000000     0.420710000000     0.347430000000    -0.189549   
N135     N      0.019280000000     0.262840000000     0.224550000000    -0.190411   
N136     N      0.019270000000     0.262840000000     0.136960000000    -0.190341   
N137     N      0.519250000000     0.012860000000     0.557890000000    -0.18993    
N138     N      0.019250000000     0.012870000000     0.470300000000    -0.200078   
N139     N      0.927140000000     0.420760000000     0.347420000000    -0.187885   
N140     N      0.861360000000     0.354990000000     0.347420000000    -0.189438   
N141     N      0.677130000000     0.170760000000     0.347430000000    -0.189551   
N142     N      0.611360000000     0.104990000000     0.347430000000    -0.189674   
N143     N      0.019250000000     0.012870000000     0.224550000000    -0.190577   
N144     N      0.519250000000     0.012860000000     0.136960000000    -0.190148   
N145     N      0.769270000000     0.920740000000     0.680780000000    -0.189553   
N146     N      0.769270000000     0.854970000000     0.680780000000    -0.189579   
N147     N      0.769270000000     0.604970000000     0.680750000000    -0.189582   
N148     N      0.769270000000     0.670740000000     0.680750000000    -0.18954    
N149     N      0.019250000000     0.920730000000     0.680740000000    -0.196537   
N150     N      0.019250000000     0.854950000000     0.680750000000    -0.196537   
N151     N      0.019250000000     0.604960000000     0.680790000000    -0.196514   
N152     N      0.019250000000     0.670730000000     0.680790000000    -0.196579   
N153     N      0.769270000000     0.762850000000     0.891230000000    -0.189574   
N154     N      0.769270000000     0.762850000000     0.803640000000    -0.189936   
N155     N      0.769250000000     0.012860000000     0.891220000000    -0.189746   
N156     N      0.769260000000     0.012870000000     0.803630000000    -0.190133   
N157     N      0.927140000000     0.762850000000     0.014120000000    -0.187885   
N158     N      0.861370000000     0.762850000000     0.014120000000    -0.18943    
N159     N      0.611370000000     0.762850000000     0.014080000000    -0.189648   
N160     N      0.677140000000     0.762850000000     0.014080000000    -0.189658   
N161     N      0.019240000000     0.762860000000     0.891230000000    -0.199739   
N162     N      0.019240000000     0.762850000000     0.803640000000    -0.196744   
N163     N      0.927140000000     0.012850000000     0.014080000000    -0.188034   
N164     N      0.861370000000     0.012850000000     0.014080000000    -0.189618   
N165     N      0.611370000000     0.012850000000     0.014100000000    -0.18982    
N166     N      0.677140000000     0.012850000000     0.014100000000    -0.189808   
N167     N      0.519260000000     0.512840000000     0.891230000000    -0.189571   
N168     N      0.519260000000     0.512840000000     0.803640000000    -0.189994   
N169     N      0.769260000000     0.762880000000     0.470300000000    -0.190009   
N170     N      0.769270000000     0.762880000000     0.557890000000    -0.189894   
N171     N      0.769240000000     0.762870000000     0.224560000000    -0.18995    
N172     N      0.769240000000     0.762860000000     0.136970000000    -0.189736   
N173     N      0.769270000000     0.012830000000     0.470300000000    -0.189892   
N174     N      0.769270000000     0.012840000000     0.557890000000    -0.18993    
N175     N      0.769260000000     0.012830000000     0.224550000000    -0.190082   
N176     N      0.769260000000     0.012840000000     0.136960000000    -0.190009   
N177     N      0.019260000000     0.762820000000     0.557900000000    -0.196784   
N178     N      0.019260000000     0.762820000000     0.470310000000    -0.200193   
N179     N      0.927150000000     0.670710000000     0.347430000000    -0.187797   
N180     N      0.861380000000     0.604940000000     0.347430000000    -0.189379   
N181     N      0.611380000000     0.854940000000     0.347440000000    -0.189556   
N182     N      0.677150000000     0.920710000000     0.347430000000    -0.189532   
N183     N      0.019270000000     0.762840000000     0.224560000000    -0.190304   
N184     N      0.019270000000     0.762840000000     0.136970000000    -0.190228   
N185     N      0.519250000000     0.512860000000     0.557890000000    -0.190001   
N186     N      0.019250000000     0.512870000000     0.470300000000    -0.200273   
N187     N      0.927130000000     0.920760000000     0.347420000000    -0.187779   
N188     N      0.861360000000     0.854990000000     0.347420000000    -0.189432   
N189     N      0.677140000000     0.670760000000     0.347440000000    -0.189595   
N190     N      0.611360000000     0.604990000000     0.347440000000    -0.189654   
N191     N      0.019250000000     0.512870000000     0.224560000000    -0.190422   
N192     N      0.519260000000     0.512860000000     0.136970000000    -0.189975   
O1       O      0.032460000000     0.495790000000     0.287690000000    -0.554607   
O2       O      0.036330000000     0.499670000000     0.407180000000    -0.555118   
O3       O      0.489700000000     0.453030000000     0.349380000000    -0.555686   
O4       O      0.079090000000     0.042420000000     0.345470000000    -0.552591   
O5       O      0.048800000000     0.072720000000     0.349380000000    -0.552332   
O6       O      0.459410000000     0.483330000000     0.345480000000    -0.555892   
O7       O      0.502160000000     0.026080000000     0.407170000000    -0.554338   
O8       O      0.506040000000     0.029960000000     0.287680000000    -0.554498   
O9       O      0.032480000000     0.245750000000     0.287680000000    -0.554721   
O10      O      0.036350000000     0.249620000000     0.407160000000    -0.555081   
O11      O      0.489720000000     0.202980000000     0.349370000000    -0.555705   
O12      O      0.079110000000     0.292370000000     0.345480000000    -0.551822   
O13      O      0.048810000000     0.322670000000     0.349380000000    -0.552388   
O14      O      0.459420000000     0.233280000000     0.345470000000    -0.555687   
O15      O      0.502180000000     0.276030000000     0.407160000000    -0.554808   
O16      O      0.506070000000     0.279920000000     0.287680000000    -0.554799   
O17      O      0.256060000000     0.029910000000     0.287680000000    -0.554726   
O18      O      0.252180000000     0.026030000000     0.407170000000    -0.554511   
O19      O      0.298810000000     0.072670000000     0.349370000000    -0.555672   
O20      O      0.209420000000     0.483280000000     0.345480000000    -0.55578    
O21      O      0.239720000000     0.452980000000     0.349380000000    -0.555623   
O22      O      0.329110000000     0.042370000000     0.345470000000    -0.555955   
O23      O      0.286350000000     0.499620000000     0.407180000000    -0.554719   
O24      O      0.282470000000     0.495740000000     0.287690000000    -0.554792   
O25      O      0.256040000000     0.279960000000     0.287680000000    -0.55479    
O26      O      0.252170000000     0.276080000000     0.407170000000    -0.554868   
O27      O      0.298800000000     0.322720000000     0.349370000000    -0.555631   
O28      O      0.209400000000     0.233330000000     0.345480000000    -0.55577    
O29      O      0.239700000000     0.203030000000     0.349380000000    -0.555662   
O30      O      0.329090000000     0.292420000000     0.345470000000    -0.555921   
O31      O      0.286340000000     0.249670000000     0.407160000000    -0.554756   
O32      O      0.282450000000     0.245790000000     0.287680000000    -0.554843   
O33      O      0.489710000000     0.043150000000     0.012130000000    -0.55555    
O34      O      0.079100000000     0.043150000000     0.016050000000    -0.551649   
O35      O      0.036340000000     0.043140000000     0.954340000000    -0.550598   
O36      O      0.032460000000     0.043150000000     0.073830000000    -0.553624   
O37      O      0.506050000000     0.482570000000     0.073850000000    -0.553833   
O38      O      0.502180000000     0.482550000000     0.954360000000    -0.550695   
O39      O      0.048810000000     0.482550000000     0.012160000000    -0.552389   
O40      O      0.459420000000     0.482550000000     0.016050000000    -0.555707   
O41      O      0.079100000000     0.293150000000     0.016030000000    -0.551874   
O42      O      0.489710000000     0.293150000000     0.012150000000    -0.555904   
O43      O      0.032470000000     0.293140000000     0.073830000000    -0.553857   
O44      O      0.036340000000     0.293140000000     0.954350000000    -0.551082   
O45      O      0.502160000000     0.232560000000     0.954340000000    -0.550661   
O46      O      0.506060000000     0.232560000000     0.073830000000    -0.55391    
O47      O      0.459410000000     0.232550000000     0.016050000000    -0.55559    
O48      O      0.048800000000     0.232550000000     0.012120000000    -0.552648   
O49      O      0.298810000000     0.482550000000     0.012140000000    -0.555686   
O50      O      0.209420000000     0.482550000000     0.016060000000    -0.555662   
O51      O      0.252180000000     0.482570000000     0.954350000000    -0.550712   
O52      O      0.256060000000     0.482550000000     0.073840000000    -0.553875   
O53      O      0.282460000000     0.043130000000     0.073840000000    -0.553678   
O54      O      0.286340000000     0.043150000000     0.954350000000    -0.550611   
O55      O      0.239710000000     0.043150000000     0.012150000000    -0.555633   
O56      O      0.329100000000     0.043150000000     0.016040000000    -0.555409   
O57      O      0.209410000000     0.232550000000     0.016030000000    -0.555753   
O58      O      0.298800000000     0.232550000000     0.012150000000    -0.555707   
O59      O      0.256050000000     0.232560000000     0.073840000000    -0.553711   
O60      O      0.252180000000     0.232560000000     0.954350000000    -0.550756   
O61      O      0.286350000000     0.293140000000     0.954350000000    -0.550763   
O62      O      0.282460000000     0.293140000000     0.073830000000    -0.55402    
O63      O      0.329100000000     0.293150000000     0.016050000000    -0.555735   
O64      O      0.239710000000     0.293150000000     0.012130000000    -0.555708   
O65      O      0.488960000000     0.495750000000     0.740510000000    -0.554639   
O66      O      0.488960000000     0.499650000000     0.621030000000    -0.55485    
O67      O      0.488950000000     0.453000000000     0.678810000000    -0.555653   
O68      O      0.488950000000     0.042390000000     0.682720000000    -0.55601    
O69      O      0.049540000000     0.072680000000     0.678810000000    -0.548765   
O70      O      0.049550000000     0.483290000000     0.682710000000    -0.548564   
O71      O      0.049540000000     0.026050000000     0.621010000000    -0.547524   
O72      O      0.049540000000     0.029920000000     0.740500000000    -0.547511   
O73      O      0.049540000000     0.279930000000     0.740500000000    -0.54757    
O74      O      0.049540000000     0.276040000000     0.621020000000    -0.547846   
O75      O      0.049550000000     0.322680000000     0.678790000000    -0.548795   
O76      O      0.049540000000     0.233290000000     0.682720000000    -0.548739   
O77      O      0.488950000000     0.203000000000     0.678810000000    -0.555692   
O78      O      0.488950000000     0.292390000000     0.682700000000    -0.555571   
O79      O      0.488960000000     0.249630000000     0.621010000000    -0.554889   
O80      O      0.488950000000     0.245760000000     0.740500000000    -0.554446   
O81      O      0.299550000000     0.029950000000     0.740500000000    -0.554585   
O82      O      0.299560000000     0.026060000000     0.621020000000    -0.554694   
O83      O      0.299560000000     0.072700000000     0.678800000000    -0.555778   
O84      O      0.299560000000     0.483310000000     0.682730000000    -0.55574    
O85      O      0.238970000000     0.453010000000     0.678820000000    -0.555616   
O86      O      0.238970000000     0.042400000000     0.682700000000    -0.556196   
O87      O      0.238980000000     0.499650000000     0.621020000000    -0.554784   
O88      O      0.238970000000     0.495780000000     0.740510000000    -0.554706   
O89      O      0.238980000000     0.245770000000     0.740500000000    -0.554821   
O90      O      0.238970000000     0.249660000000     0.621020000000    -0.554926   
O91      O      0.238970000000     0.203010000000     0.678790000000    -0.555654   
O92      O      0.238970000000     0.292410000000     0.682720000000    -0.555681   
O93      O      0.299560000000     0.322700000000     0.678820000000    -0.555932   
O94      O      0.299560000000     0.233310000000     0.682700000000    -0.555723   
O95      O      0.299550000000     0.276070000000     0.621010000000    -0.554803   
O96      O      0.299560000000     0.279940000000     0.740500000000    -0.554737   
O97      O      0.032450000000     0.995790000000     0.287680000000    -0.5545     
O98      O      0.036340000000     0.999670000000     0.407160000000    -0.554577   
O99      O      0.489700000000     0.953030000000     0.349370000000    -0.555751   
O100     O      0.079090000000     0.542420000000     0.345480000000    -0.552156   
O101     O      0.048800000000     0.572720000000     0.349390000000    -0.552508   
O102     O      0.459400000000     0.983330000000     0.345470000000    -0.555157   
O103     O      0.502160000000     0.526080000000     0.407180000000    -0.554626   
O104     O      0.506050000000     0.529960000000     0.287690000000    -0.55492    
O105     O      0.032480000000     0.745740000000     0.287690000000    -0.554564   
O106     O      0.036350000000     0.749620000000     0.407180000000    -0.55498    
O107     O      0.489720000000     0.702980000000     0.349380000000    -0.555614   
O108     O      0.079110000000     0.792370000000     0.345490000000    -0.55209    
O109     O      0.048820000000     0.822670000000     0.349390000000    -0.55263    
O110     O      0.459420000000     0.733280000000     0.345480000000    -0.555691   
O111     O      0.502180000000     0.776030000000     0.407180000000    -0.554828   
O112     O      0.506060000000     0.779920000000     0.287700000000    -0.554591   
O113     O      0.256060000000     0.529910000000     0.287690000000    -0.554837   
O114     O      0.252180000000     0.526030000000     0.407170000000    -0.554834   
O115     O      0.298820000000     0.572670000000     0.349390000000    -0.555661   
O116     O      0.209420000000     0.983280000000     0.345480000000    -0.555252   
O117     O      0.239720000000     0.952980000000     0.349380000000    -0.555782   
O118     O      0.329110000000     0.542370000000     0.345480000000    -0.555909   
O119     O      0.286360000000     0.999620000000     0.407160000000    -0.554208   
O120     O      0.282470000000     0.995740000000     0.287680000000    -0.554363   
O121     O      0.256040000000     0.779960000000     0.287690000000    -0.554783   
O122     O      0.252170000000     0.776090000000     0.407180000000    -0.554613   
O123     O      0.298800000000     0.822720000000     0.349380000000    -0.555601   
O124     O      0.209400000000     0.733330000000     0.345490000000    -0.555769   
O125     O      0.239700000000     0.703030000000     0.349390000000    -0.555665   
O126     O      0.329090000000     0.792420000000     0.345480000000    -0.555927   
O127     O      0.286340000000     0.749670000000     0.407170000000    -0.554817   
O128     O      0.282450000000     0.745790000000     0.287690000000    -0.554852   
O129     O      0.489720000000     0.543150000000     0.012140000000    -0.555735   
O130     O      0.079110000000     0.543150000000     0.016050000000    -0.55175    
O131     O      0.036350000000     0.543140000000     0.954350000000    -0.550727   
O132     O      0.032460000000     0.543150000000     0.073840000000    -0.55372    
O133     O      0.506040000000     0.982570000000     0.073840000000    -0.553553   
O134     O      0.502170000000     0.982550000000     0.954350000000    -0.550147   
O135     O      0.048800000000     0.982550000000     0.012150000000    -0.552152   
O136     O      0.459410000000     0.982550000000     0.016040000000    -0.55513    
O137     O      0.079100000000     0.793150000000     0.016050000000    -0.551875   
O138     O      0.489710000000     0.793150000000     0.012160000000    -0.555857   
O139     O      0.032470000000     0.793140000000     0.073850000000    -0.55363    
O140     O      0.036340000000     0.793140000000     0.954360000000    -0.55097    
O141     O      0.502160000000     0.732560000000     0.954360000000    -0.550761   
O142     O      0.506060000000     0.732550000000     0.073840000000    -0.553777   
O143     O      0.459410000000     0.732550000000     0.016060000000    -0.555626   
O144     O      0.048800000000     0.732550000000     0.012140000000    -0.552651   
O145     O      0.298800000000     0.982550000000     0.012130000000    -0.55523    
O146     O      0.209410000000     0.982550000000     0.016050000000    -0.555376   
O147     O      0.252170000000     0.982570000000     0.954340000000    -0.550345   
O148     O      0.256050000000     0.982550000000     0.073830000000    -0.553498   
O149     O      0.282470000000     0.543130000000     0.073850000000    -0.553812   
O150     O      0.286350000000     0.543150000000     0.954360000000    -0.550743   
O151     O      0.239720000000     0.543150000000     0.012160000000    -0.555751   
O152     O      0.329110000000     0.543150000000     0.016050000000    -0.555553   
O153     O      0.209410000000     0.732550000000     0.016040000000    -0.555787   
O154     O      0.298800000000     0.732550000000     0.012160000000    -0.555729   
O155     O      0.256040000000     0.732560000000     0.073840000000    -0.553758   
O156     O      0.252180000000     0.732560000000     0.954360000000    -0.550792   
O157     O      0.286350000000     0.793140000000     0.954360000000    -0.550738   
O158     O      0.282460000000     0.793150000000     0.073840000000    -0.553813   
O159     O      0.329100000000     0.793150000000     0.016060000000    -0.555561   
O160     O      0.239710000000     0.793150000000     0.012140000000    -0.555852   
O161     O      0.488960000000     0.995750000000     0.740500000000    -0.554391   
O162     O      0.488950000000     0.999640000000     0.621020000000    -0.554264   
O163     O      0.488950000000     0.953000000000     0.678800000000    -0.555846   
O164     O      0.488950000000     0.542390000000     0.682730000000    -0.555658   
O165     O      0.049550000000     0.572690000000     0.678830000000    -0.548526   
O166     O      0.049550000000     0.983290000000     0.682700000000    -0.548043   
O167     O      0.049540000000     0.526060000000     0.621020000000    -0.547693   
O168     O      0.049540000000     0.529920000000     0.740510000000    -0.54772    
O169     O      0.049540000000     0.779930000000     0.740510000000    -0.547613   
O170     O      0.049540000000     0.776040000000     0.621030000000    -0.547797   
O171     O      0.049550000000     0.822680000000     0.678810000000    -0.548809   
O172     O      0.049550000000     0.733300000000     0.682730000000    -0.548616   
O173     O      0.488950000000     0.703000000000     0.678830000000    -0.555789   
O174     O      0.488950000000     0.792390000000     0.682710000000    -0.55561    
O175     O      0.488960000000     0.749630000000     0.621030000000    -0.554872   
O176     O      0.488960000000     0.745760000000     0.740510000000    -0.554743   
O177     O      0.299560000000     0.529950000000     0.740510000000    -0.554628   
O178     O      0.299560000000     0.526060000000     0.621030000000    -0.554871   
O179     O      0.299570000000     0.572700000000     0.678810000000    -0.555838   
O180     O      0.299560000000     0.983310000000     0.682720000000    -0.555268   
O181     O      0.238970000000     0.953010000000     0.678810000000    -0.555775   
O182     O      0.238970000000     0.542410000000     0.682710000000    -0.55558    
O183     O      0.238980000000     0.999650000000     0.621010000000    -0.554426   
O184     O      0.238970000000     0.995780000000     0.740500000000    -0.554465   
O185     O      0.238980000000     0.745770000000     0.740510000000    -0.554804   
O186     O      0.238970000000     0.749660000000     0.621030000000    -0.554836   
O187     O      0.238970000000     0.703010000000     0.678810000000    -0.555614   
O188     O      0.238970000000     0.792410000000     0.682730000000    -0.555667   
O189     O      0.299560000000     0.822700000000     0.678820000000    -0.555866   
O190     O      0.299570000000     0.733310000000     0.682710000000    -0.555469   
O191     O      0.299560000000     0.776070000000     0.621020000000    -0.554545   
O192     O      0.299560000000     0.779940000000     0.740510000000    -0.554702   
O193     O      0.532460000000     0.495790000000     0.287690000000    -0.554722   
O194     O      0.536330000000     0.499670000000     0.407180000000    -0.554846   
O195     O      0.989700000000     0.453030000000     0.349380000000    -0.537798   
O196     O      0.579090000000     0.042420000000     0.345470000000    -0.55638    
O197     O      0.548800000000     0.072720000000     0.349380000000    -0.555516   
O198     O      0.959410000000     0.483330000000     0.345480000000    -0.539179   
O199     O      0.002160000000     0.026080000000     0.407170000000    -0.558417   
O200     O      0.006040000000     0.029960000000     0.287680000000    -0.554977   
O201     O      0.532480000000     0.245750000000     0.287680000000    -0.554845   
O202     O      0.536350000000     0.249620000000     0.407160000000    -0.554813   
O203     O      0.989720000000     0.202980000000     0.349370000000    -0.537814   
O204     O      0.579110000000     0.292370000000     0.345480000000    -0.555593   
O205     O      0.548810000000     0.322670000000     0.349380000000    -0.555582   
O206     O      0.959420000000     0.233280000000     0.345470000000    -0.538966   
O207     O      0.002180000000     0.276030000000     0.407160000000    -0.558961   
O208     O      0.006070000000     0.279920000000     0.287680000000    -0.55528    
O209     O      0.756060000000     0.029910000000     0.287680000000    -0.55462    
O210     O      0.752180000000     0.026030000000     0.407170000000    -0.554372   
O211     O      0.798810000000     0.072670000000     0.349370000000    -0.555477   
O212     O      0.709420000000     0.483280000000     0.345480000000    -0.555693   
O213     O      0.739720000000     0.452980000000     0.349390000000    -0.555658   
O214     O      0.829110000000     0.042370000000     0.345470000000    -0.555158   
O215     O      0.786350000000     0.499620000000     0.407180000000    -0.554535   
O216     O      0.782470000000     0.495740000000     0.287690000000    -0.554358   
O217     O      0.756040000000     0.279960000000     0.287680000000    -0.554666   
O218     O      0.752170000000     0.276080000000     0.407170000000    -0.554589   
O219     O      0.798800000000     0.322720000000     0.349370000000    -0.555427   
O220     O      0.709400000000     0.233330000000     0.345480000000    -0.555693   
O221     O      0.739700000000     0.203030000000     0.349380000000    -0.555718   
O222     O      0.829090000000     0.292420000000     0.345470000000    -0.555172   
O223     O      0.786340000000     0.249670000000     0.407160000000    -0.554606   
O224     O      0.782450000000     0.245790000000     0.287680000000    -0.554411   
O225     O      0.989710000000     0.043150000000     0.012130000000    -0.537773   
O226     O      0.579100000000     0.043150000000     0.016050000000    -0.555411   
O227     O      0.536340000000     0.043140000000     0.954340000000    -0.550328   
O228     O      0.532460000000     0.043150000000     0.073830000000    -0.553742   
O229     O      0.006060000000     0.482570000000     0.073850000000    -0.554289   
O230     O      0.002180000000     0.482550000000     0.954360000000    -0.554838   
O231     O      0.548810000000     0.482550000000     0.012160000000    -0.555596   
O232     O      0.959420000000     0.482550000000     0.016050000000    -0.539101   
O233     O      0.579100000000     0.293150000000     0.016030000000    -0.555649   
O234     O      0.989710000000     0.293150000000     0.012150000000    -0.537991   
O235     O      0.532470000000     0.293140000000     0.073830000000    -0.553978   
O236     O      0.536340000000     0.293140000000     0.954350000000    -0.550822   
O237     O      0.002160000000     0.232560000000     0.954340000000    -0.554807   
O238     O      0.006060000000     0.232560000000     0.073830000000    -0.554389   
O239     O      0.959410000000     0.232550000000     0.016050000000    -0.538869   
O240     O      0.548800000000     0.232550000000     0.012120000000    -0.555845   
O241     O      0.798810000000     0.482550000000     0.012140000000    -0.555497   
O242     O      0.709420000000     0.482550000000     0.016060000000    -0.555664   
O243     O      0.752170000000     0.482570000000     0.954350000000    -0.550606   
O244     O      0.756060000000     0.482550000000     0.073840000000    -0.553757   
O245     O      0.782460000000     0.043130000000     0.073840000000    -0.553375   
O246     O      0.786340000000     0.043150000000     0.954350000000    -0.550328   
O247     O      0.739710000000     0.043150000000     0.012150000000    -0.555749   
O248     O      0.829100000000     0.043150000000     0.016040000000    -0.554687   
O249     O      0.709410000000     0.232550000000     0.016030000000    -0.555684   
O250     O      0.798800000000     0.232550000000     0.012150000000    -0.5555     
O251     O      0.756050000000     0.232560000000     0.073840000000    -0.553604   
O252     O      0.752180000000     0.232560000000     0.954350000000    -0.550671   
O253     O      0.786350000000     0.293140000000     0.954350000000    -0.550601   
O254     O      0.782460000000     0.293140000000     0.073830000000    -0.55359    
O255     O      0.829100000000     0.293150000000     0.016050000000    -0.554985   
O256     O      0.739710000000     0.293150000000     0.012130000000    -0.555762   
O257     O      0.988960000000     0.495750000000     0.740510000000    -0.53725    
O258     O      0.988960000000     0.499640000000     0.621030000000    -0.537433   
O259     O      0.988950000000     0.453000000000     0.678810000000    -0.538443   
O260     O      0.988950000000     0.042390000000     0.682720000000    -0.538724   
O261     O      0.549550000000     0.072690000000     0.678810000000    -0.555524   
O262     O      0.549550000000     0.483290000000     0.682710000000    -0.555558   
O263     O      0.549540000000     0.026050000000     0.621010000000    -0.55449    
O264     O      0.549540000000     0.029920000000     0.740500000000    -0.554549   
O265     O      0.549540000000     0.279930000000     0.740500000000    -0.554664   
O266     O      0.549540000000     0.276040000000     0.621020000000    -0.554856   
O267     O      0.549550000000     0.322690000000     0.678790000000    -0.555643   
O268     O      0.549550000000     0.233290000000     0.682720000000    -0.555462   
O269     O      0.988950000000     0.203000000000     0.678810000000    -0.538384   
O270     O      0.988950000000     0.292390000000     0.682700000000    -0.538175   
O271     O      0.988960000000     0.249630000000     0.621010000000    -0.537461   
O272     O      0.988950000000     0.245760000000     0.740500000000    -0.53713    
O273     O      0.799550000000     0.029950000000     0.740500000000    -0.554359   
O274     O      0.799560000000     0.026060000000     0.621020000000    -0.554473   
O275     O      0.799560000000     0.072700000000     0.678800000000    -0.555633   
O276     O      0.799560000000     0.483310000000     0.682730000000    -0.555595   
O277     O      0.738970000000     0.453010000000     0.678820000000    -0.555559   
O278     O      0.738970000000     0.042400000000     0.682700000000    -0.556137   
O279     O      0.738980000000     0.499650000000     0.621020000000    -0.5547     
O280     O      0.738980000000     0.495780000000     0.740510000000    -0.554779   
O281     O      0.738980000000     0.245770000000     0.740500000000    -0.554719   
O282     O      0.738970000000     0.249660000000     0.621020000000    -0.554754   
O283     O      0.738970000000     0.203010000000     0.678790000000    -0.555593   
O284     O      0.738970000000     0.292410000000     0.682720000000    -0.555623   
O285     O      0.799560000000     0.322700000000     0.678820000000    -0.555782   
O286     O      0.799560000000     0.233310000000     0.682700000000    -0.555558   
O287     O      0.799560000000     0.276070000000     0.621010000000    -0.554382   
O288     O      0.799560000000     0.279940000000     0.740500000000    -0.554496   
O289     O      0.532450000000     0.995790000000     0.287680000000    -0.55462    
O290     O      0.536330000000     0.999670000000     0.407160000000    -0.554487   
O291     O      0.989700000000     0.953030000000     0.349370000000    -0.537918   
O292     O      0.579090000000     0.542420000000     0.345480000000    -0.555931   
O293     O      0.548800000000     0.572720000000     0.349390000000    -0.555705   
O294     O      0.959400000000     0.983330000000     0.345470000000    -0.538515   
O295     O      0.002160000000     0.526080000000     0.407180000000    -0.558786   
O296     O      0.006050000000     0.529960000000     0.287690000000    -0.555397   
O297     O      0.532480000000     0.745740000000     0.287690000000    -0.554607   
O298     O      0.536350000000     0.749620000000     0.407180000000    -0.554696   
O299     O      0.989720000000     0.702980000000     0.349380000000    -0.537739   
O300     O      0.579110000000     0.792370000000     0.345490000000    -0.555774   
O301     O      0.548810000000     0.822670000000     0.349390000000    -0.555716   
O302     O      0.959420000000     0.733280000000     0.345480000000    -0.538979   
O303     O      0.002180000000     0.776030000000     0.407180000000    -0.558976   
O304     O      0.006070000000     0.779920000000     0.287700000000    -0.555223   
O305     O      0.756060000000     0.529910000000     0.287690000000    -0.554692   
O306     O      0.752180000000     0.526030000000     0.407180000000    -0.554635   
O307     O      0.798810000000     0.572670000000     0.349390000000    -0.555318   
O308     O      0.709420000000     0.983280000000     0.345480000000    -0.555201   
O309     O      0.739720000000     0.952980000000     0.349380000000    -0.555798   
O310     O      0.829110000000     0.542370000000     0.345480000000    -0.555069   
O311     O      0.786360000000     0.999620000000     0.407170000000    -0.553871   
O312     O      0.782470000000     0.995740000000     0.287680000000    -0.553894   
O313     O      0.756040000000     0.779960000000     0.287690000000    -0.554663   
O314     O      0.752170000000     0.776090000000     0.407180000000    -0.554444   
O315     O      0.798800000000     0.822720000000     0.349380000000    -0.555405   
O316     O      0.709400000000     0.733330000000     0.345490000000    -0.555718   
O317     O      0.739700000000     0.703030000000     0.349390000000    -0.555729   
O318     O      0.829090000000     0.792420000000     0.345480000000    -0.55517    
O319     O      0.786340000000     0.749670000000     0.407170000000    -0.554565   
O320     O      0.782450000000     0.745790000000     0.287690000000    -0.554409   
O321     O      0.989710000000     0.543150000000     0.012140000000    -0.537774   
O322     O      0.579110000000     0.543150000000     0.016060000000    -0.555554   
O323     O      0.536350000000     0.543140000000     0.954350000000    -0.550514   
O324     O      0.532470000000     0.543150000000     0.073840000000    -0.553892   
O325     O      0.006050000000     0.982570000000     0.073840000000    -0.554024   
O326     O      0.002170000000     0.982550000000     0.954350000000    -0.554296   
O327     O      0.548800000000     0.982550000000     0.012150000000    -0.555348   
O328     O      0.959410000000     0.982550000000     0.016040000000    -0.538587   
O329     O      0.579100000000     0.793150000000     0.016050000000    -0.555603   
O330     O      0.989710000000     0.793150000000     0.012160000000    -0.537844   
O331     O      0.532470000000     0.793140000000     0.073850000000    -0.553792   
O332     O      0.536340000000     0.793140000000     0.954360000000    -0.550746   
O333     O      0.002160000000     0.732560000000     0.954360000000    -0.554874   
O334     O      0.006060000000     0.732550000000     0.073840000000    -0.554225   
O335     O      0.959410000000     0.732550000000     0.016060000000    -0.538864   
O336     O      0.548800000000     0.732550000000     0.012140000000    -0.555869   
O337     O      0.798800000000     0.982550000000     0.012130000000    -0.555214   
O338     O      0.709410000000     0.982550000000     0.016050000000    -0.555233   
O339     O      0.752170000000     0.982570000000     0.954340000000    -0.550249   
O340     O      0.756050000000     0.982550000000     0.073830000000    -0.553423   
O341     O      0.782470000000     0.543130000000     0.073850000000    -0.553377   
O342     O      0.786350000000     0.543150000000     0.954360000000    -0.550579   
O343     O      0.739720000000     0.543150000000     0.012160000000    -0.55589    
O344     O      0.829110000000     0.543150000000     0.016050000000    -0.5548     
O345     O      0.709410000000     0.732550000000     0.016040000000    -0.555697   
O346     O      0.798800000000     0.732550000000     0.012160000000    -0.555548   
O347     O      0.756040000000     0.732560000000     0.073840000000    -0.553646   
O348     O      0.752180000000     0.732560000000     0.954360000000    -0.550712   
O349     O      0.786350000000     0.793140000000     0.954360000000    -0.550588   
O350     O      0.782460000000     0.793150000000     0.073840000000    -0.553373   
O351     O      0.829100000000     0.793150000000     0.016060000000    -0.554976   
O352     O      0.739710000000     0.793150000000     0.012140000000    -0.555737   
O353     O      0.988960000000     0.995750000000     0.740500000000    -0.537077   
O354     O      0.988960000000     0.999640000000     0.621020000000    -0.537109   
O355     O      0.988950000000     0.953000000000     0.678800000000    -0.538481   
O356     O      0.988950000000     0.542390000000     0.682730000000    -0.538125   
O357     O      0.549550000000     0.572690000000     0.678830000000    -0.555565   
O358     O      0.549540000000     0.983290000000     0.682700000000    -0.55522    
O359     O      0.549540000000     0.526060000000     0.621020000000    -0.554763   
O360     O      0.549540000000     0.529920000000     0.740510000000    -0.554803   
O361     O      0.549540000000     0.779940000000     0.740510000000    -0.554785   
O362     O      0.549540000000     0.776040000000     0.621030000000    -0.554908   
O363     O      0.549550000000     0.822680000000     0.678810000000    -0.55585    
O364     O      0.549550000000     0.733300000000     0.682730000000    -0.555759   
O365     O      0.988950000000     0.703000000000     0.678830000000    -0.53838    
O366     O      0.988950000000     0.792390000000     0.682710000000    -0.538144   
O367     O      0.988960000000     0.749630000000     0.621030000000    -0.537422   
O368     O      0.988960000000     0.745760000000     0.740510000000    -0.537403   
O369     O      0.799560000000     0.529950000000     0.740510000000    -0.554467   
O370     O      0.799560000000     0.526060000000     0.621030000000    -0.554654   
O371     O      0.799570000000     0.572700000000     0.678810000000    -0.555695   
O372     O      0.799560000000     0.983310000000     0.682720000000    -0.555146   
O373     O      0.738970000000     0.953010000000     0.678820000000    -0.55573    
O374     O      0.738970000000     0.542410000000     0.682710000000    -0.555541   
O375     O      0.738980000000     0.999650000000     0.621010000000    -0.554356   
O376     O      0.738970000000     0.995780000000     0.740500000000    -0.55437    
O377     O      0.738980000000     0.745770000000     0.740510000000    -0.554699   
O378     O      0.738970000000     0.749660000000     0.621030000000    -0.55474    
O379     O      0.738970000000     0.703010000000     0.678810000000    -0.55555    
O380     O      0.738970000000     0.792410000000     0.682730000000    -0.555529   
O381     O      0.799570000000     0.822700000000     0.678830000000    -0.555622   
O382     O      0.799570000000     0.733310000000     0.682710000000    -0.555338   
O383     O      0.799560000000     0.776070000000     0.621020000000    -0.554337   
O384     O      0.799560000000     0.779940000000     0.740510000000    -0.554474   
V1       V      0.035620000000     0.496510000000     0.347430000000     1.37694    
V2       V      0.502880000000     0.029240000000     0.347420000000     1.39363    
V3       V      0.035630000000     0.246460000000     0.347420000000     1.37693    
V4       V      0.502900000000     0.279190000000     0.347420000000     1.39516    
V5       V      0.252900000000     0.029200000000     0.347420000000     1.39379    
V6       V      0.285640000000     0.496460000000     0.347430000000     1.39527    
V7       V      0.252880000000     0.279240000000     0.347420000000     1.39499    
V8       V      0.285620000000     0.246510000000     0.347420000000     1.39551    
V9       V      0.035620000000     0.045590000000     0.014090000000     1.37133    
V10      V      0.502890000000     0.480120000000     0.014100000000     1.39043    
V11      V      0.035620000000     0.295590000000     0.014090000000     1.37247    
V12      V      0.502890000000     0.230110000000     0.014090000000     1.3904     
V13      V      0.252900000000     0.480120000000     0.014100000000     1.39033    
V14      V      0.285620000000     0.045590000000     0.014090000000     1.38999    
V15      V      0.252890000000     0.230120000000     0.014090000000     1.39029    
V16      V      0.285630000000     0.295590000000     0.014090000000     1.39068    
V17      V      0.486520000000     0.496480000000     0.680770000000     1.39548    
V18      V      0.051980000000     0.029210000000     0.680760000000     1.36626    
V19      V      0.051980000000     0.279210000000     0.680760000000     1.36785    
V20      V      0.486510000000     0.246470000000     0.680750000000     1.39517    
V21      V      0.302000000000     0.029230000000     0.680760000000     1.39444    
V22      V      0.236530000000     0.496490000000     0.680770000000     1.39447    
V23      V      0.236530000000     0.246490000000     0.680760000000     1.39479    
V24      V      0.302000000000     0.279230000000     0.680760000000     1.39557    
V25      V      0.035620000000     0.996510000000     0.347420000000     1.37834    
V26      V      0.502880000000     0.529240000000     0.347430000000     1.39521    
V27      V      0.035640000000     0.746460000000     0.347430000000     1.37678    
V28      V      0.502900000000     0.779190000000     0.347440000000     1.39535    
V29      V      0.252900000000     0.529190000000     0.347430000000     1.39522    
V30      V      0.285630000000     0.996460000000     0.347420000000     1.39654    
V31      V      0.252880000000     0.779240000000     0.347430000000     1.39491    
V32      V      0.285620000000     0.746510000000     0.347430000000     1.39553    
V33      V      0.035630000000     0.545590000000     0.014100000000     1.3716     
V34      V      0.502890000000     0.980120000000     0.014100000000     1.39075    
V35      V      0.035620000000     0.795580000000     0.014100000000     1.37208    
V36      V      0.502890000000     0.730110000000     0.014100000000     1.39063    
V37      V      0.252880000000     0.980110000000     0.014090000000     1.39075    
V38      V      0.285630000000     0.545590000000     0.014100000000     1.39043    
V39      V      0.252890000000     0.730120000000     0.014100000000     1.39052    
V40      V      0.285620000000     0.795590000000     0.014100000000     1.39057    
V41      V      0.486510000000     0.996470000000     0.680760000000     1.39652    
V42      V      0.051990000000     0.529210000000     0.680770000000     1.36711    
V43      V      0.051980000000     0.779210000000     0.680770000000     1.36776    
V44      V      0.486510000000     0.746470000000     0.680770000000     1.39533    
V45      V      0.302000000000     0.529230000000     0.680770000000     1.39584    
V46      V      0.236530000000     0.996490000000     0.680760000000     1.39604    
V47      V      0.236530000000     0.746490000000     0.680770000000     1.39476    
V48      V      0.302000000000     0.779230000000     0.680770000000     1.39529    
V49      V      0.535620000000     0.496510000000     0.347430000000     1.39518    
V50      V      0.002880000000     0.029240000000     0.347420000000     1.36834    
V51      V      0.535630000000     0.246460000000     0.347420000000     1.39516    
V52      V      0.002900000000     0.279190000000     0.347420000000     1.36978    
V53      V      0.752900000000     0.029200000000     0.347420000000     1.39366    
V54      V      0.785640000000     0.496460000000     0.347430000000     1.39637    
V55      V      0.752880000000     0.279240000000     0.347420000000     1.39473    
V56      V      0.785620000000     0.246510000000     0.347420000000     1.39669    
V57      V      0.535620000000     0.045590000000     0.014090000000     1.38951    
V58      V      0.002890000000     0.480120000000     0.014100000000     1.36508    
V59      V      0.535620000000     0.295590000000     0.014090000000     1.39074    
V60      V      0.002890000000     0.230110000000     0.014090000000     1.36505    
V61      V      0.752900000000     0.480120000000     0.014100000000     1.39013    
V62      V      0.785620000000     0.045590000000     0.014100000000     1.39116    
V63      V      0.752890000000     0.230120000000     0.014090000000     1.39011    
V64      V      0.785630000000     0.295590000000     0.014090000000     1.39184    
V65      V      0.986520000000     0.496470000000     0.680770000000     1.40883    
V66      V      0.551980000000     0.029210000000     0.680760000000     1.3937     
V67      V      0.551980000000     0.279210000000     0.680760000000     1.39499    
V68      V      0.986510000000     0.246470000000     0.680750000000     1.40846    
V69      V      0.802000000000     0.029230000000     0.680760000000     1.39516    
V70      V      0.736530000000     0.496490000000     0.680770000000     1.39441    
V71      V      0.736530000000     0.246490000000     0.680760000000     1.39466    
V72      V      0.802000000000     0.279230000000     0.680760000000     1.3962     
V73      V      0.535620000000     0.996510000000     0.347420000000     1.39659    
V74      V      0.002880000000     0.529240000000     0.347430000000     1.36982    
V75      V      0.535640000000     0.746460000000     0.347430000000     1.39491    
V76      V      0.002900000000     0.779190000000     0.347440000000     1.3699     
V77      V      0.752900000000     0.529190000000     0.347430000000     1.39489    
V78      V      0.785630000000     0.996460000000     0.347420000000     1.39736    
V79      V      0.752880000000     0.779240000000     0.347430000000     1.39471    
V80      V      0.785620000000     0.746510000000     0.347430000000     1.39665    
V81      V      0.535630000000     0.545590000000     0.014100000000     1.39017    
V82      V      0.002890000000     0.980120000000     0.014100000000     1.36542    
V83      V      0.535620000000     0.795590000000     0.014100000000     1.39041    
V84      V      0.002890000000     0.730110000000     0.014100000000     1.36506    
V85      V      0.752890000000     0.980110000000     0.014090000000     1.39055    
V86      V      0.785630000000     0.545590000000     0.014100000000     1.39159    
V87      V      0.752890000000     0.730120000000     0.014100000000     1.39034    
V88      V      0.785630000000     0.795590000000     0.014100000000     1.39172    
V89      V      0.986510000000     0.996470000000     0.680760000000     1.40976    
V90      V      0.551990000000     0.529210000000     0.680770000000     1.39476    
V91      V      0.551980000000     0.779210000000     0.680770000000     1.39561    
V92      V      0.986520000000     0.746470000000     0.680770000000     1.40858    
V93      V      0.802000000000     0.529230000000     0.680770000000     1.39657    
V94      V      0.736530000000     0.996490000000     0.680760000000     1.3959     
V95      V      0.736530000000     0.746490000000     0.680770000000     1.39459    
V96      V      0.802000000000     0.779230000000     0.680770000000     1.3961     


