data_structure

_audit_creation_method RASPA-1.0
_audit_creation_date 2023-5-19
_audit_author_name 'Poobodin Mano'

_cell_length_a    42.2264
_cell_length_b    42.2246
_cell_length_c    42.2365
_cell_angle_alpha 90
_cell_angle_beta  90
_cell_angle_gamma 90
_cell_volume      75307.4

_symmetry_cell_setting          triclinic
_symmetry_space_group_name_Hall 'P 1'
_symmetry_space_group_name_H-M  'P 1'
_symmetry_Int_Tables_number     1

_symmetry_equiv_pos_as_xyz 'x,y,z'

loop_
_atom_site_label
_atom_site_type_symbol
_atom_site_fract_x
_atom_site_fract_y
_atom_site_fract_z
_atom_site_charge
C1       C      0.004170000000     0.065820000000     0.257720000000     0.491375   
C2       C      0.008570000000     0.446130000000     0.252610000000     0.474167   
C3       C      0.066050000000     0.508630000000     0.256010000000     0.475101   
C4       C      0.446240000000     0.503430000000     0.254210000000     0.477469   
C5       C      0.005820000000     0.196220000000     0.257590000000     0.464794   
C6       C      0.007530000000     0.315830000000     0.253640000000     0.486435   
C7       C      0.506510000000     0.255080000000     0.196030000000     0.494627   
C8       C      0.506760000000     0.257390000000     0.315630000000     0.473009   
C9       C      0.315910000000     0.003860000000     0.254770000000     0.486295   
C10      C      0.196180000000     0.009640000000     0.256040000000     0.481697   
C11      C      0.255610000000     0.504530000000     0.195800000000     0.492321   
C12      C      0.255890000000     0.508860000000     0.315580000000     0.475829   
C13      C      0.254640000000     0.505910000000     0.065670000000     0.475003   
C14      C      0.253470000000     0.509020000000     0.445870000000     0.496621   
C15      C      0.256240000000     0.447720000000     0.504870000000     0.478949   
C16      C      0.251720000000     0.067440000000     0.506940000000     0.493214   
C17      C      0.004770000000     0.256340000000     0.065690000000     0.475476   
C18      C      0.006110000000     0.256530000000     0.446060000000     0.489627   
C19      C      0.065070000000     0.256940000000     0.506760000000     0.494588   
C20      C      0.445440000000     0.256030000000     0.505330000000     0.473592   
C21      C      0.315060000000     0.255860000000     0.505740000000     0.491522   
C22      C      0.195470000000     0.258880000000     0.507290000000     0.477237   
C23      C      0.253450000000     0.197740000000     0.006690000000     0.468458   
C24      C      0.256790000000     0.317350000000     0.006550000000     0.48288    
C25      C      0.396680000000     0.277160000000     0.023210000000     0.023317   
C26      C      0.396930000000     0.234180000000     0.487440000000    -0.0313656  
C27      C      0.363690000000     0.276000000000     0.024350000000     0.0378922  
C28      C      0.363800000000     0.234910000000     0.486230000000     0.204229   
C29      C      0.146500000000     0.276320000000     0.486120000000     0.0283035  
C30      C      0.147140000000     0.240550000000     0.029090000000    -0.0306132  
C31      C      0.113460000000     0.276730000000     0.487010000000     0.0431916  
C32      C      0.114080000000     0.238620000000     0.028080000000     0.205034   
C33      C      0.279060000000     0.398880000000     0.488590000000     0.027214   
C34      C      0.235370000000     0.399330000000     0.023500000000    -0.0298445  
C35      C      0.277930000000     0.365760000000     0.487830000000     0.0401316  
C36      C      0.236130000000     0.366320000000     0.025170000000     0.204602   
C37      C      0.270530000000     0.148800000000     0.027870000000     0.0257546  
C38      C      0.233070000000     0.149480000000     0.986350000000    -0.0246557  
C39      C      0.270830000000     0.115810000000     0.027030000000     0.0401365  
C40      C      0.231060000000     0.116370000000     0.987550000000     0.209869   
C41      C      0.271250000000     0.031910000000     0.364540000000     0.0246307  
C42      C      0.236870000000     0.487800000000     0.363770000000    -0.030269   
C43      C      0.271810000000     0.030720000000     0.397630000000     0.0413701  
C44      C      0.234910000000     0.488530000000     0.396780000000     0.205872   
C45      C      0.277920000000     0.020810000000     0.114330000000     0.0266017  
C46      C      0.232640000000     0.987930000000     0.114090000000    -0.0238464  
C47      C      0.277230000000     0.021450000000     0.147330000000     0.0398853  
C48      C      0.233760000000     0.986060000000     0.147210000000     0.208792   
C49      C      0.485390000000     0.275160000000     0.364440000000     0.023955   
C50      C      0.028250000000     0.239240000000     0.364140000000    -0.0327968  
C51      C      0.486310000000     0.275900000000     0.397490000000     0.03887    
C52      C      0.027290000000     0.237660000000     0.397210000000     0.203346   
C53      C      0.987540000000     0.234560000000     0.114480000000     0.0319955  
C54      C      0.023100000000     0.277720000000     0.114170000000    -0.0282724  
C55      C      0.987030000000     0.235260000000     0.147530000000     0.0458326  
C56      C      0.024960000000     0.276530000000     0.147210000000     0.207379   
C57      C      0.114820000000     0.493910000000     0.279210000000     0.0258425  
C58      C      0.114360000000     0.026990000000     0.234090000000    -0.0302253  
C59      C      0.147820000000     0.493130000000     0.278240000000     0.0414611  
C60      C      0.147500000000     0.028710000000     0.234930000000     0.202646   
C61      C      0.397470000000     0.484330000000     0.274810000000     0.0257872  
C62      C      0.397670000000     0.020140000000     0.231860000000    -0.0303875  
C63      C      0.364380000000     0.483160000000     0.273640000000     0.0404039  
C64      C      0.364610000000     0.021410000000     0.232680000000     0.206141   
C65      C      0.026390000000     0.397390000000     0.273620000000     0.0248319  
C66      C      0.492280000000     0.397660000000     0.229310000000    -0.0292937  
C67      C      0.026970000000     0.364390000000     0.273020000000     0.0395037  
C68      C      0.490360000000     0.364540000000     0.230600000000     0.206948   
C69      C      0.026420000000     0.147130000000     0.240270000000     0.0233502  
C70      C      0.484290000000     0.148000000000     0.277020000000    -0.0308253  
C71      C      0.024970000000     0.114180000000     0.239440000000     0.0394443  
C72      C      0.484830000000     0.114810000000     0.278530000000     0.204286   
C73      C      0.004170000000     0.065820000000     0.757720000000     0.491419   
C74      C      0.008570000000     0.446130000000     0.752610000000     0.474202   
C75      C      0.066050000000     0.508630000000     0.756010000000     0.475132   
C76      C      0.446240000000     0.503430000000     0.754210000000     0.4775     
C77      C      0.005820000000     0.196220000000     0.757590000000     0.464822   
C78      C      0.007530000000     0.315830000000     0.753640000000     0.486379   
C79      C      0.506510000000     0.255080000000     0.696030000000     0.494723   
C80      C      0.506760000000     0.257390000000     0.815630000000     0.473142   
C81      C      0.315910000000     0.003860000000     0.754760000000     0.486348   
C82      C      0.196180000000     0.009640000000     0.756040000000     0.48173    
C83      C      0.255610000000     0.504530000000     0.695800000000     0.49237    
C84      C      0.255890000000     0.508860000000     0.815580000000     0.475678   
C85      C      0.254640000000     0.505910000000     0.565670000000     0.475582   
C86      C      0.253470000000     0.509020000000     0.945870000000     0.495589   
C87      C      0.256240000000     0.447720000000     0.004870000000     0.477719   
C88      C      0.251720000000     0.067440000000     0.006940000000     0.492001   
C89      C      0.004770000000     0.256340000000     0.565690000000     0.476031   
C90      C      0.006110000000     0.256530000000     0.946060000000     0.488631   
C91      C      0.065070000000     0.256940000000     0.006760000000     0.493361   
C92      C      0.445440000000     0.256030000000     0.005330000000     0.472437   
C93      C      0.315060000000     0.255860000000     0.005740000000     0.483229   
C94      C      0.195470000000     0.258880000000     0.007290000000     0.469041   
C95      C      0.253450000000     0.197740000000     0.506690000000     0.476696   
C96      C      0.256790000000     0.317350000000     0.506550000000     0.491102   
C97      C      0.396680000000     0.277160000000     0.523210000000     0.024284   
C98      C      0.396930000000     0.234180000000     0.987440000000    -0.0254985  
C99      C      0.363690000000     0.276000000000     0.524350000000     0.039234   
C100     C      0.363800000000     0.234910000000     0.986230000000     0.2085     
C101     C      0.146500000000     0.276320000000     0.986120000000     0.033197   
C102     C      0.147140000000     0.240550000000     0.529090000000    -0.029316   
C103     C      0.113460000000     0.276730000000     0.987010000000     0.048807   
C104     C      0.114080000000     0.238620000000     0.528080000000     0.205928   
C105     C      0.279060000000     0.398880000000     0.988590000000     0.0328756  
C106     C      0.235370000000     0.399330000000     0.523500000000    -0.0288587  
C107     C      0.277930000000     0.365760000000     0.987830000000     0.044986   
C108     C      0.236130000000     0.366320000000     0.525170000000     0.205743   
C109     C      0.270530000000     0.148800000000     0.527870000000     0.0270612  
C110     C      0.233070000000     0.149480000000     0.486350000000    -0.0295196  
C111     C      0.270830000000     0.115810000000     0.527030000000     0.0410522  
C112     C      0.231060000000     0.116370000000     0.487550000000     0.204661   
C113     C      0.271250000000     0.031910000000     0.864540000000     0.0248634  
C114     C      0.236870000000     0.487800000000     0.863770000000    -0.0300929  
C115     C      0.271810000000     0.030720000000     0.897630000000     0.0415975  
C116     C      0.234910000000     0.488530000000     0.896780000000     0.206073   
C117     C      0.277920000000     0.020810000000     0.614330000000     0.0267247  
C118     C      0.232640000000     0.987930000000     0.614090000000    -0.0237362  
C119     C      0.277230000000     0.021450000000     0.647330000000     0.0399344  
C120     C      0.233760000000     0.986060000000     0.647210000000     0.208833   
C121     C      0.485390000000     0.275160000000     0.864440000000     0.0241956  
C122     C      0.028250000000     0.239240000000     0.864140000000    -0.0325841  
C123     C      0.486310000000     0.275900000000     0.897480000000     0.0390758  
C124     C      0.027290000000     0.237660000000     0.897210000000     0.20355    
C125     C      0.987540000000     0.234560000000     0.614480000000     0.0320853  
C126     C      0.023100000000     0.277720000000     0.614170000000    -0.028185   
C127     C      0.987030000000     0.235260000000     0.647530000000     0.0458813  
C128     C      0.024960000000     0.276530000000     0.647210000000     0.207426   
C129     C      0.114820000000     0.493910000000     0.779210000000     0.0259172  
C130     C      0.114360000000     0.026990000000     0.734090000000    -0.030183   
C131     C      0.147820000000     0.493130000000     0.778240000000     0.0415278  
C132     C      0.147500000000     0.028710000000     0.734930000000     0.202691   
C133     C      0.397470000000     0.484330000000     0.774810000000     0.0258056  
C134     C      0.397670000000     0.020140000000     0.731860000000    -0.0303398  
C135     C      0.364380000000     0.483160000000     0.773630000000     0.0405703  
C136     C      0.364610000000     0.021410000000     0.732680000000     0.206182   
C137     C      0.026390000000     0.397390000000     0.773620000000     0.0249328  
C138     C      0.492280000000     0.397660000000     0.729310000000    -0.0292429  
C139     C      0.026970000000     0.364390000000     0.773020000000     0.0395597  
C140     C      0.490360000000     0.364540000000     0.730600000000     0.206985   
C141     C      0.026420000000     0.147130000000     0.740270000000     0.0233977  
C142     C      0.484290000000     0.148000000000     0.777020000000    -0.0307967  
C143     C      0.024970000000     0.114180000000     0.739440000000     0.039505   
C144     C      0.484830000000     0.114810000000     0.778530000000     0.204424   
C145     C      0.004170000000     0.565820000000     0.257720000000     0.491948   
C146     C      0.008570000000     0.946130000000     0.252610000000     0.473222   
C147     C      0.066050000000     0.008630000000     0.256010000000     0.47397    
C148     C      0.446240000000     0.003430000000     0.254210000000     0.476319   
C149     C      0.005820000000     0.696220000000     0.257590000000     0.464815   
C150     C      0.007530000000     0.815830000000     0.253640000000     0.486509   
C151     C      0.506510000000     0.755080000000     0.196030000000     0.494573   
C152     C      0.506760000000     0.757390000000     0.315630000000     0.473026   
C153     C      0.315910000000     0.503860000000     0.254770000000     0.494323   
C154     C      0.196180000000     0.509640000000     0.256040000000     0.489895   
C155     C      0.255610000000     0.004530000000     0.195800000000     0.484229   
C156     C      0.255890000000     0.008860000000     0.315580000000     0.467653   
C157     C      0.254640000000     0.005910000000     0.065670000000     0.473856   
C158     C      0.253470000000     0.009020000000     0.445870000000     0.495453   
C159     C      0.256240000000     0.947720000000     0.504870000000     0.477985   
C160     C      0.251720000000     0.567440000000     0.506940000000     0.493786   
C161     C      0.004770000000     0.756340000000     0.065690000000     0.475474   
C162     C      0.006110000000     0.756530000000     0.446060000000     0.489621   
C163     C      0.065070000000     0.756940000000     0.506760000000     0.494272   
C164     C      0.445440000000     0.756030000000     0.505330000000     0.473896   
C165     C      0.315060000000     0.755860000000     0.505740000000     0.491538   
C166     C      0.195470000000     0.758880000000     0.507290000000     0.477253   
C167     C      0.253450000000     0.697740000000     0.006690000000     0.468475   
C168     C      0.256790000000     0.817350000000     0.006550000000     0.482962   
C169     C      0.396680000000     0.777160000000     0.023210000000     0.0234219  
C170     C      0.396930000000     0.734180000000     0.487440000000    -0.0313078  
C171     C      0.363690000000     0.776000000000     0.024350000000     0.0379633  
C172     C      0.363800000000     0.734910000000     0.486230000000     0.20427    
C173     C      0.146500000000     0.776320000000     0.486120000000     0.0283686  
C174     C      0.147140000000     0.740550000000     0.029090000000    -0.0305641  
C175     C      0.113460000000     0.776730000000     0.487010000000     0.043277   
C176     C      0.114080000000     0.738620000000     0.028080000000     0.205084   
C177     C      0.279060000000     0.898880000000     0.488590000000     0.0274819  
C178     C      0.235370000000     0.899330000000     0.023500000000    -0.0295963  
C179     C      0.277930000000     0.865760000000     0.487830000000     0.0403683  
C180     C      0.236130000000     0.866320000000     0.025170000000     0.204831   
C181     C      0.270530000000     0.648800000000     0.027870000000     0.0257876  
C182     C      0.233070000000     0.649480000000     0.986350000000    -0.0246307  
C183     C      0.270830000000     0.615810000000     0.027030000000     0.0402538  
C184     C      0.231060000000     0.616370000000     0.987550000000     0.20997    
C185     C      0.271250000000     0.531910000000     0.364540000000     0.0259074  
C186     C      0.236870000000     0.987800000000     0.363770000000    -0.0255388  
C187     C      0.271810000000     0.530720000000     0.397630000000     0.0422608  
C188     C      0.234910000000     0.988530000000     0.396780000000     0.210984   
C189     C      0.277920000000     0.520810000000     0.114330000000     0.0274514  
C190     C      0.232640000000     0.487930000000     0.114090000000    -0.0294296  
C191     C      0.277230000000     0.521450000000     0.147330000000     0.0411572  
C192     C      0.233760000000     0.486060000000     0.147210000000     0.204215   
C193     C      0.485390000000     0.775160000000     0.364440000000     0.0240246  
C194     C      0.028250000000     0.739240000000     0.364140000000    -0.0327521  
C195     C      0.486310000000     0.775900000000     0.397490000000     0.0389561  
C196     C      0.027290000000     0.737660000000     0.397210000000     0.203408   
C197     C      0.987540000000     0.734560000000     0.114480000000     0.0320314  
C198     C      0.023100000000     0.777720000000     0.114170000000    -0.028186   
C199     C      0.987030000000     0.735260000000     0.147530000000     0.0458669  
C200     C      0.024960000000     0.776530000000     0.147210000000     0.20743    
C201     C      0.114820000000     0.993910000000     0.279210000000     0.0314056  
C202     C      0.114360000000     0.526990000000     0.234090000000    -0.02936    
C203     C      0.147820000000     0.993130000000     0.278240000000     0.0461912  
C204     C      0.147500000000     0.528710000000     0.234930000000     0.204028   
C205     C      0.397470000000     0.984330000000     0.274810000000     0.0313516  
C206     C      0.397670000000     0.520140000000     0.231860000000    -0.0294662  
C207     C      0.364380000000     0.983160000000     0.273640000000     0.0452007  
C208     C      0.364610000000     0.521410000000     0.232680000000     0.20722    
C209     C      0.026390000000     0.897390000000     0.273620000000     0.0250915  
C210     C      0.492280000000     0.897660000000     0.229310000000    -0.0290258  
C211     C      0.026970000000     0.864390000000     0.273020000000     0.0397295  
C212     C      0.490360000000     0.864540000000     0.230600000000     0.207188   
C213     C      0.026420000000     0.647130000000     0.240270000000     0.0233894  
C214     C      0.484290000000     0.648000000000     0.277020000000    -0.0307971  
C215     C      0.024970000000     0.614170000000     0.239440000000     0.0396039  
C216     C      0.484830000000     0.614810000000     0.278530000000     0.204403   
C217     C      0.004170000000     0.565820000000     0.757720000000     0.491991   
C218     C      0.008570000000     0.946130000000     0.752610000000     0.47326    
C219     C      0.066050000000     0.008630000000     0.756010000000     0.474003   
C220     C      0.446240000000     0.003430000000     0.754210000000     0.476352   
C221     C      0.005820000000     0.696220000000     0.757590000000     0.464843   
C222     C      0.007530000000     0.815830000000     0.753640000000     0.486452   
C223     C      0.506510000000     0.755080000000     0.696030000000     0.494668   
C224     C      0.506760000000     0.757390000000     0.815630000000     0.473159   
C225     C      0.315910000000     0.503860000000     0.754760000000     0.494356   
C226     C      0.196180000000     0.509640000000     0.756040000000     0.489908   
C227     C      0.255610000000     0.004530000000     0.695800000000     0.484291   
C228     C      0.255890000000     0.008860000000     0.815580000000     0.467529   
C229     C      0.254640000000     0.005910000000     0.565670000000     0.474434   
C230     C      0.253470000000     0.009020000000     0.945870000000     0.494424   
C231     C      0.256240000000     0.947720000000     0.004870000000     0.476759   
C232     C      0.251720000000     0.567440000000     0.006940000000     0.492572   
C233     C      0.004770000000     0.756340000000     0.565690000000     0.476028   
C234     C      0.006110000000     0.756530000000     0.946060000000     0.488628   
C235     C      0.065070000000     0.756940000000     0.006760000000     0.493047   
C236     C      0.445440000000     0.756030000000     0.005330000000     0.472743   
C237     C      0.315060000000     0.755860000000     0.005740000000     0.483263   
C238     C      0.195470000000     0.758880000000     0.007290000000     0.469076   
C239     C      0.253450000000     0.697740000000     0.506690000000     0.476699   
C240     C      0.256790000000     0.817350000000     0.506550000000     0.49116    
C241     C      0.396680000000     0.777160000000     0.523210000000     0.024387   
C242     C      0.396930000000     0.734180000000     0.987440000000    -0.0254563  
C243     C      0.363690000000     0.776000000000     0.524350000000     0.0393019  
C244     C      0.363800000000     0.734910000000     0.986230000000     0.20853    
C245     C      0.146500000000     0.776320000000     0.986120000000     0.0332481  
C246     C      0.147140000000     0.740550000000     0.529090000000    -0.0292695  
C247     C      0.113460000000     0.776730000000     0.987010000000     0.0488755  
C248     C      0.114080000000     0.738620000000     0.528080000000     0.205976   
C249     C      0.279060000000     0.898880000000     0.988590000000     0.033111   
C250     C      0.235370000000     0.899330000000     0.523500000000    -0.0286133  
C251     C      0.277930000000     0.865760000000     0.987830000000     0.0452045  
C252     C      0.236130000000     0.866320000000     0.525170000000     0.205967   
C253     C      0.270530000000     0.648800000000     0.527870000000     0.0270931  
C254     C      0.233070000000     0.649480000000     0.486350000000    -0.0294857  
C255     C      0.270830000000     0.615810000000     0.527030000000     0.0411692  
C256     C      0.231060000000     0.616370000000     0.487550000000     0.204766   
C257     C      0.271250000000     0.531910000000     0.864540000000     0.0261331  
C258     C      0.236870000000     0.987800000000     0.863770000000    -0.0253793  
C259     C      0.271810000000     0.530720000000     0.897630000000     0.0424863  
C260     C      0.234910000000     0.988530000000     0.896780000000     0.211154   
C261     C      0.277920000000     0.520810000000     0.614330000000     0.0275743  
C262     C      0.232640000000     0.487930000000     0.614090000000    -0.0293144  
C263     C      0.277230000000     0.521450000000     0.647330000000     0.0412054  
C264     C      0.233760000000     0.486060000000     0.647210000000     0.204264   
C265     C      0.485390000000     0.775160000000     0.864440000000     0.0242642  
C266     C      0.028250000000     0.739240000000     0.864140000000    -0.0325399  
C267     C      0.486310000000     0.775900000000     0.897480000000     0.0391609  
C268     C      0.027290000000     0.737660000000     0.897210000000     0.203611   
C269     C      0.987540000000     0.734560000000     0.614480000000     0.0321211  
C270     C      0.023100000000     0.777720000000     0.614170000000    -0.0280988  
C271     C      0.987030000000     0.735260000000     0.647530000000     0.0459156  
C272     C      0.024960000000     0.776530000000     0.647210000000     0.207477   
C273     C      0.114820000000     0.993910000000     0.779210000000     0.031464   
C274     C      0.114360000000     0.526990000000     0.734090000000    -0.0293192  
C275     C      0.147820000000     0.993130000000     0.778240000000     0.0462439  
C276     C      0.147500000000     0.528710000000     0.734930000000     0.20407    
C277     C      0.397470000000     0.984330000000     0.774810000000     0.0313539  
C278     C      0.397670000000     0.520140000000     0.731860000000    -0.0294194  
C279     C      0.364380000000     0.983160000000     0.773630000000     0.0453554  
C280     C      0.364610000000     0.521410000000     0.732680000000     0.207258   
C281     C      0.026390000000     0.897390000000     0.773620000000     0.0251916  
C282     C      0.492280000000     0.897660000000     0.729310000000    -0.0289758  
C283     C      0.026970000000     0.864390000000     0.773020000000     0.0397845  
C284     C      0.490360000000     0.864540000000     0.730600000000     0.207224   
C285     C      0.026420000000     0.647130000000     0.740270000000     0.0234368  
C286     C      0.484290000000     0.648000000000     0.777020000000    -0.0307686  
C287     C      0.024970000000     0.614170000000     0.739440000000     0.0396644  
C288     C      0.484830000000     0.614810000000     0.778530000000     0.204541   
C289     C      0.504170000000     0.065820000000     0.257720000000     0.492634   
C290     C      0.508570000000     0.446130000000     0.252610000000     0.475298   
C291     C      0.566050000000     0.508630000000     0.256010000000     0.475676   
C292     C      0.946240000000     0.503430000000     0.254210000000     0.476477   
C293     C      0.505820000000     0.196220000000     0.257590000000     0.472959   
C294     C      0.507530000000     0.315830000000     0.253640000000     0.494614   
C295     C      0.006510000000     0.255080000000     0.196030000000     0.486428   
C296     C      0.006760000000     0.257390000000     0.315630000000     0.464859   
C297     C      0.815910000000     0.003860000000     0.254770000000     0.48637    
C298     C      0.696180000000     0.009640000000     0.256040000000     0.481708   
C299     C      0.755610000000     0.504530000000     0.195800000000     0.492329   
C300     C      0.755890000000     0.508860000000     0.315580000000     0.47585    
C301     C      0.754640000000     0.505910000000     0.065670000000     0.474987   
C302     C      0.753470000000     0.509020000000     0.445870000000     0.496609   
C303     C      0.756240000000     0.447720000000     0.504870000000     0.47894    
C304     C      0.751720000000     0.067440000000     0.506940000000     0.492876   
C305     C      0.504770000000     0.256340000000     0.065690000000     0.47662    
C306     C      0.506110000000     0.256530000000     0.446060000000     0.490767   
C307     C      0.565070000000     0.256940000000     0.506760000000     0.495134   
C308     C      0.945440000000     0.256030000000     0.505330000000     0.472627   
C309     C      0.815060000000     0.255860000000     0.505740000000     0.49158    
C310     C      0.695470000000     0.258880000000     0.507290000000     0.477159   
C311     C      0.753440000000     0.197740000000     0.006690000000     0.468561   
C312     C      0.756790000000     0.317350000000     0.006550000000     0.483014   
C313     C      0.896680000000     0.277160000000     0.023210000000     0.0235748  
C314     C      0.896930000000     0.234180000000     0.487440000000    -0.0311237  
C315     C      0.863700000000     0.276000000000     0.024350000000     0.0380976  
C316     C      0.863800000000     0.234910000000     0.486230000000     0.20445    
C317     C      0.646500000000     0.276320000000     0.486120000000     0.0283334  
C318     C      0.647140000000     0.240550000000     0.029090000000    -0.0305891  
C319     C      0.613460000000     0.276730000000     0.487010000000     0.0432925  
C320     C      0.614080000000     0.238620000000     0.028080000000     0.205121   
C321     C      0.779060000000     0.398880000000     0.488590000000     0.0273006  
C322     C      0.735370000000     0.399330000000     0.023500000000    -0.029796   
C323     C      0.777930000000     0.365760000000     0.487830000000     0.0402164  
C324     C      0.736130000000     0.366320000000     0.025170000000     0.20466    
C325     C      0.770530000000     0.148800000000     0.027870000000     0.0258454  
C326     C      0.733070000000     0.149480000000     0.986350000000    -0.0246326  
C327     C      0.770830000000     0.115810000000     0.027030000000     0.0401971  
C328     C      0.731060000000     0.116370000000     0.987550000000     0.209901   
C329     C      0.771250000000     0.031910000000     0.364540000000     0.0247017  
C330     C      0.736860000000     0.487800000000     0.363770000000    -0.0303067  
C331     C      0.771810000000     0.030720000000     0.397630000000     0.0414636  
C332     C      0.734910000000     0.488530000000     0.396780000000     0.205974   
C333     C      0.777920000000     0.020810000000     0.114330000000     0.0266801  
C334     C      0.732640000000     0.987930000000     0.114090000000    -0.0238171  
C335     C      0.777230000000     0.021450000000     0.147330000000     0.0399638  
C336     C      0.733760000000     0.986060000000     0.147210000000     0.208826   
C337     C      0.985390000000     0.275160000000     0.364440000000     0.0287395  
C338     C      0.528250000000     0.239240000000     0.364140000000    -0.0315622  
C339     C      0.986310000000     0.275900000000     0.397490000000     0.0444796  
C340     C      0.527290000000     0.237660000000     0.397210000000     0.204238   
C341     C      0.487540000000     0.234560000000     0.114480000000     0.0263824  
C342     C      0.523100000000     0.277720000000     0.114170000000    -0.0272862  
C343     C      0.487030000000     0.235260000000     0.147530000000     0.0410379  
C344     C      0.524960000000     0.276530000000     0.147210000000     0.208541   
C345     C      0.614820000000     0.493910000000     0.279210000000     0.0259622  
C346     C      0.614360000000     0.026990000000     0.234090000000    -0.0301296  
C347     C      0.647820000000     0.493130000000     0.278240000000     0.0415092  
C348     C      0.647500000000     0.028710000000     0.234930000000     0.202761   
C349     C      0.897470000000     0.484330000000     0.274810000000     0.0260181  
C350     C      0.897670000000     0.020140000000     0.231860000000    -0.0301607  
C351     C      0.864380000000     0.483160000000     0.273640000000     0.040642   
C352     C      0.864610000000     0.021410000000     0.232680000000     0.206371   
C353     C      0.526390000000     0.397390000000     0.273620000000     0.0257607  
C354     C      0.992280000000     0.397660000000     0.229310000000    -0.0234238  
C355     C      0.526970000000     0.364390000000     0.273020000000     0.0408061  
C356     C      0.990360000000     0.364540000000     0.230600000000     0.21123    
C357     C      0.526420000000     0.147130000000     0.240270000000     0.0246317  
C358     C      0.984290000000     0.148000000000     0.277020000000    -0.0259934  
C359     C      0.524970000000     0.114180000000     0.239440000000     0.040356   
C360     C      0.984840000000     0.114810000000     0.278530000000     0.209448   
C361     C      0.504170000000     0.065820000000     0.757720000000     0.492676   
C362     C      0.508570000000     0.446130000000     0.752610000000     0.475331   
C363     C      0.566050000000     0.508630000000     0.756010000000     0.475706   
C364     C      0.946240000000     0.503430000000     0.754210000000     0.476511   
C365     C      0.505820000000     0.196220000000     0.757590000000     0.472968   
C366     C      0.507530000000     0.315830000000     0.753640000000     0.494539   
C367     C      0.006510000000     0.255080000000     0.696030000000     0.486534   
C368     C      0.006760000000     0.257390000000     0.815630000000     0.465016   
C369     C      0.815910000000     0.003860000000     0.754760000000     0.486423   
C370     C      0.696180000000     0.009640000000     0.756040000000     0.481741   
C371     C      0.755610000000     0.504530000000     0.695800000000     0.492377   
C372     C      0.755890000000     0.508860000000     0.815580000000     0.475698   
C373     C      0.754640000000     0.505910000000     0.565670000000     0.475565   
C374     C      0.753470000000     0.509020000000     0.945870000000     0.49558    
C375     C      0.756240000000     0.447720000000     0.004870000000     0.477712   
C376     C      0.751720000000     0.067440000000     0.006940000000     0.491665   
C377     C      0.504770000000     0.256340000000     0.565690000000     0.477176   
C378     C      0.506110000000     0.256530000000     0.946060000000     0.489769   
C379     C      0.565070000000     0.256940000000     0.006760000000     0.493905   
C380     C      0.945440000000     0.256030000000     0.005330000000     0.471475   
C381     C      0.815060000000     0.255860000000     0.005740000000     0.483314   
C382     C      0.695470000000     0.258880000000     0.007290000000     0.468979   
C383     C      0.753440000000     0.197740000000     0.506690000000     0.476782   
C384     C      0.756790000000     0.317350000000     0.506550000000     0.491218   
C385     C      0.896680000000     0.277160000000     0.523210000000     0.0245382  
C386     C      0.896930000000     0.234180000000     0.987440000000    -0.0252893  
C387     C      0.863700000000     0.276000000000     0.524350000000     0.0394351  
C388     C      0.863800000000     0.234910000000     0.986230000000     0.208705   
C389     C      0.646500000000     0.276320000000     0.986120000000     0.0332182  
C390     C      0.647140000000     0.240550000000     0.529090000000    -0.0292931  
C391     C      0.613460000000     0.276730000000     0.987010000000     0.0489032  
C392     C      0.614080000000     0.238620000000     0.528080000000     0.206014   
C393     C      0.779060000000     0.398880000000     0.988590000000     0.0329459  
C394     C      0.735370000000     0.399330000000     0.523500000000    -0.0288116  
C395     C      0.777930000000     0.365760000000     0.987830000000     0.0450568  
C396     C      0.736130000000     0.366320000000     0.525170000000     0.205799   
C397     C      0.770530000000     0.148800000000     0.527870000000     0.0271494  
C398     C      0.733070000000     0.149480000000     0.486350000000    -0.0294838  
C399     C      0.770830000000     0.115810000000     0.527030000000     0.0411108  
C400     C      0.731060000000     0.116370000000     0.487550000000     0.204706   
C401     C      0.771250000000     0.031910000000     0.864540000000     0.0249335  
C402     C      0.736860000000     0.487800000000     0.863770000000    -0.0301313  
C403     C      0.771810000000     0.030720000000     0.897630000000     0.04169    
C404     C      0.734910000000     0.488530000000     0.896780000000     0.206174   
C405     C      0.777920000000     0.020810000000     0.614330000000     0.0268027  
C406     C      0.732640000000     0.987930000000     0.614090000000    -0.0237071  
C407     C      0.777230000000     0.021450000000     0.647330000000     0.0400127  
C408     C      0.733760000000     0.986060000000     0.647210000000     0.208867   
C409     C      0.985390000000     0.275160000000     0.864440000000     0.0289592  
C410     C      0.528250000000     0.239240000000     0.864140000000    -0.0313525  
C411     C      0.986310000000     0.275900000000     0.897480000000     0.0446506  
C412     C      0.527290000000     0.237660000000     0.897210000000     0.20444    
C413     C      0.487540000000     0.234560000000     0.614480000000     0.0264768  
C414     C      0.523100000000     0.277720000000     0.614170000000    -0.0271991  
C415     C      0.487030000000     0.235260000000     0.647530000000     0.0410959  
C416     C      0.524960000000     0.276530000000     0.647210000000     0.208588   
C417     C      0.614820000000     0.493910000000     0.779210000000     0.0260365  
C418     C      0.614360000000     0.026990000000     0.734090000000    -0.0300875  
C419     C      0.647820000000     0.493130000000     0.778240000000     0.0415758  
C420     C      0.647500000000     0.028710000000     0.734930000000     0.202806   
C421     C      0.897470000000     0.484330000000     0.774810000000     0.0260354  
C422     C      0.897670000000     0.020140000000     0.731860000000    -0.0301136  
C423     C      0.864380000000     0.483160000000     0.773630000000     0.0408075  
C424     C      0.864610000000     0.021410000000     0.732680000000     0.206412   
C425     C      0.526390000000     0.397390000000     0.773620000000     0.0258597  
C426     C      0.992280000000     0.397660000000     0.729310000000    -0.0233885  
C427     C      0.526970000000     0.364390000000     0.773020000000     0.0408592  
C428     C      0.990360000000     0.364540000000     0.730600000000     0.211255   
C429     C      0.526420000000     0.147130000000     0.740270000000     0.0246766  
C430     C      0.984290000000     0.148000000000     0.777020000000    -0.0259784  
C431     C      0.524970000000     0.114180000000     0.739440000000     0.0404154  
C432     C      0.984840000000     0.114810000000     0.778530000000     0.209571   
C433     C      0.504170000000     0.565820000000     0.257720000000     0.493208   
C434     C      0.508570000000     0.946130000000     0.252610000000     0.47435    
C435     C      0.566050000000     0.008630000000     0.256010000000     0.474543   
C436     C      0.946240000000     0.003430000000     0.254210000000     0.475329   
C437     C      0.505820000000     0.696220000000     0.257590000000     0.472966   
C438     C      0.507530000000     0.815830000000     0.253640000000     0.494664   
C439     C      0.006510000000     0.755080000000     0.196030000000     0.486392   
C440     C      0.006760000000     0.757390000000     0.315630000000     0.464896   
C441     C      0.815910000000     0.503860000000     0.254770000000     0.494375   
C442     C      0.696180000000     0.509640000000     0.256040000000     0.489892   
C443     C      0.755610000000     0.004530000000     0.195800000000     0.484254   
C444     C      0.755890000000     0.008860000000     0.315580000000     0.467693   
C445     C      0.754640000000     0.005910000000     0.065670000000     0.473842   
C446     C      0.753470000000     0.009020000000     0.445870000000     0.495443   
C447     C      0.756240000000     0.947720000000     0.504870000000     0.477978   
C448     C      0.751720000000     0.567440000000     0.506940000000     0.493446   
C449     C      0.504770000000     0.756340000000     0.065690000000     0.476615   
C450     C      0.506110000000     0.756530000000     0.446060000000     0.490759   
C451     C      0.565070000000     0.756940000000     0.506760000000     0.494816   
C452     C      0.945440000000     0.756030000000     0.505330000000     0.472931   
C453     C      0.815060000000     0.755860000000     0.505740000000     0.491595   
C454     C      0.695470000000     0.758880000000     0.507290000000     0.477175   
C455     C      0.753440000000     0.697740000000     0.006690000000     0.468578   
C456     C      0.756790000000     0.817350000000     0.006550000000     0.483096   
C457     C      0.896680000000     0.777160000000     0.023210000000     0.0236785  
C458     C      0.896930000000     0.734180000000     0.487440000000    -0.0310668  
C459     C      0.863700000000     0.776000000000     0.024350000000     0.0381677  
C460     C      0.863800000000     0.734910000000     0.486230000000     0.204491   
C461     C      0.646500000000     0.776320000000     0.486120000000     0.0283983  
C462     C      0.647140000000     0.740550000000     0.029090000000    -0.03054    
C463     C      0.613460000000     0.776730000000     0.487010000000     0.0433776  
C464     C      0.614080000000     0.738620000000     0.028080000000     0.205171   
C465     C      0.779060000000     0.898880000000     0.488590000000     0.0275673  
C466     C      0.735370000000     0.899330000000     0.023500000000    -0.0295485  
C467     C      0.777930000000     0.865760000000     0.487830000000     0.040452   
C468     C      0.736130000000     0.866320000000     0.025170000000     0.204889   
C469     C      0.770530000000     0.648800000000     0.027870000000     0.0258783  
C470     C      0.733070000000     0.649480000000     0.986350000000    -0.0246077  
C471     C      0.770830000000     0.615810000000     0.027030000000     0.0403141  
C472     C      0.731060000000     0.616370000000     0.987550000000     0.210002   
C473     C      0.771250000000     0.531910000000     0.364540000000     0.0259759  
C474     C      0.736860000000     0.987800000000     0.363770000000    -0.025591   
C475     C      0.771810000000     0.530720000000     0.397630000000     0.0423522  
C476     C      0.734910000000     0.988530000000     0.396780000000     0.211073   
C477     C      0.777920000000     0.520810000000     0.114330000000     0.0275282  
C478     C      0.732640000000     0.487930000000     0.114090000000    -0.0293854  
C479     C      0.777230000000     0.521450000000     0.147330000000     0.0412332  
C480     C      0.733760000000     0.486060000000     0.147210000000     0.204261   
C481     C      0.985390000000     0.775160000000     0.364440000000     0.0287955  
C482     C      0.528250000000     0.739240000000     0.364140000000    -0.0315199  
C483     C      0.986310000000     0.775900000000     0.397490000000     0.0445497  
C484     C      0.527290000000     0.737660000000     0.397210000000     0.204299   
C485     C      0.487540000000     0.734560000000     0.114480000000     0.0264331  
C486     C      0.523100000000     0.777720000000     0.114170000000    -0.0272017  
C487     C      0.487030000000     0.735260000000     0.147530000000     0.0410851  
C488     C      0.524960000000     0.776530000000     0.147210000000     0.20859    
C489     C      0.614820000000     0.993910000000     0.279210000000     0.0315205  
C490     C      0.614360000000     0.526990000000     0.234090000000    -0.0292646  
C491     C      0.647820000000     0.993130000000     0.278240000000     0.0462303  
C492     C      0.647500000000     0.528710000000     0.234930000000     0.204142   
C493     C      0.897470000000     0.984330000000     0.274810000000     0.0315511  
C494     C      0.897670000000     0.520140000000     0.231860000000    -0.0292419  
C495     C      0.864380000000     0.983160000000     0.273640000000     0.0454204  
C496     C      0.864610000000     0.521410000000     0.232680000000     0.207446   
C497     C      0.526390000000     0.897390000000     0.273620000000     0.0260178  
C498     C      0.992280000000     0.897660000000     0.229310000000    -0.0231889  
C499     C      0.526970000000     0.864390000000     0.273020000000     0.0410271  
C500     C      0.990360000000     0.864540000000     0.230600000000     0.211454   
C501     C      0.526420000000     0.647130000000     0.240270000000     0.0246706  
C502     C      0.984290000000     0.648000000000     0.277020000000    -0.0259738  
C503     C      0.524970000000     0.614170000000     0.239440000000     0.0405146  
C504     C      0.984840000000     0.614810000000     0.278530000000     0.209562   
C505     C      0.504170000000     0.565820000000     0.757720000000     0.49325    
C506     C      0.508570000000     0.946130000000     0.752610000000     0.474386   
C507     C      0.566050000000     0.008630000000     0.756010000000     0.474576   
C508     C      0.946240000000     0.003430000000     0.754210000000     0.475365   
C509     C      0.505820000000     0.696220000000     0.757590000000     0.472975   
C510     C      0.507530000000     0.815830000000     0.753640000000     0.494589   
C511     C      0.006510000000     0.755080000000     0.696030000000     0.486499   
C512     C      0.006760000000     0.757390000000     0.815630000000     0.465052   
C513     C      0.815910000000     0.503860000000     0.754760000000     0.494407   
C514     C      0.696180000000     0.509640000000     0.756040000000     0.489905   
C515     C      0.755610000000     0.004530000000     0.695800000000     0.484317   
C516     C      0.755890000000     0.008860000000     0.815580000000     0.467568   
C517     C      0.754640000000     0.005910000000     0.565670000000     0.474419   
C518     C      0.753470000000     0.009020000000     0.945870000000     0.494416   
C519     C      0.756240000000     0.947720000000     0.004870000000     0.476754   
C520     C      0.751720000000     0.567440000000     0.006940000000     0.492234   
C521     C      0.504770000000     0.756340000000     0.565690000000     0.47717    
C522     C      0.506110000000     0.756530000000     0.946060000000     0.489763   
C523     C      0.565070000000     0.756940000000     0.006760000000     0.493589   
C524     C      0.945440000000     0.756030000000     0.005330000000     0.471781   
C525     C      0.815060000000     0.755860000000     0.005740000000     0.483348   
C526     C      0.695470000000     0.758880000000     0.007290000000     0.469015   
C527     C      0.753440000000     0.697740000000     0.506690000000     0.476785   
C528     C      0.756790000000     0.817350000000     0.506550000000     0.491275   
C529     C      0.896680000000     0.777160000000     0.523210000000     0.0246401  
C530     C      0.896930000000     0.734180000000     0.987440000000    -0.0252479  
C531     C      0.863700000000     0.776000000000     0.524350000000     0.0395021  
C532     C      0.863800000000     0.734910000000     0.986230000000     0.208734   
C533     C      0.646500000000     0.776320000000     0.986120000000     0.0332692  
C534     C      0.647140000000     0.740550000000     0.529090000000    -0.0292466  
C535     C      0.613460000000     0.776730000000     0.987010000000     0.0489713  
C536     C      0.614080000000     0.738620000000     0.528080000000     0.206063   
C537     C      0.779060000000     0.898880000000     0.988590000000     0.0331802  
C538     C      0.735370000000     0.899330000000     0.523500000000    -0.028567   
C539     C      0.777930000000     0.865760000000     0.987830000000     0.0452742  
C540     C      0.736130000000     0.866320000000     0.525170000000     0.206023   
C541     C      0.770530000000     0.648800000000     0.527870000000     0.0271813  
C542     C      0.733070000000     0.649480000000     0.486350000000    -0.0294498  
C543     C      0.770830000000     0.615810000000     0.527030000000     0.0412275  
C544     C      0.731060000000     0.616370000000     0.487550000000     0.204812   
C545     C      0.771250000000     0.531910000000     0.864540000000     0.0262007  
C546     C      0.736860000000     0.987800000000     0.863770000000    -0.0254322  
C547     C      0.771810000000     0.530720000000     0.897630000000     0.0425768  
C548     C      0.734910000000     0.988530000000     0.896780000000     0.211243   
C549     C      0.777920000000     0.520810000000     0.614330000000     0.0276508  
C550     C      0.732640000000     0.487930000000     0.614090000000    -0.0292704  
C551     C      0.777230000000     0.521450000000     0.647330000000     0.0412812  
C552     C      0.733760000000     0.486060000000     0.647210000000     0.20431    
C553     C      0.985390000000     0.775160000000     0.864440000000     0.0290142  
C554     C      0.528250000000     0.739240000000     0.864140000000    -0.0313108  
C555     C      0.986310000000     0.775900000000     0.897480000000     0.0447198  
C556     C      0.527290000000     0.737660000000     0.897210000000     0.204499   
C557     C      0.487540000000     0.734560000000     0.614480000000     0.0265273  
C558     C      0.523100000000     0.777720000000     0.614170000000    -0.0271149  
C559     C      0.487030000000     0.735260000000     0.647530000000     0.041143   
C560     C      0.524960000000     0.776530000000     0.647210000000     0.208637   
C561     C      0.614820000000     0.993910000000     0.779210000000     0.0315784  
C562     C      0.614360000000     0.526990000000     0.734090000000    -0.029224   
C563     C      0.647820000000     0.993130000000     0.778240000000     0.0462829  
C564     C      0.647500000000     0.528710000000     0.734930000000     0.204184   
C565     C      0.897470000000     0.984330000000     0.774810000000     0.0315523  
C566     C      0.897670000000     0.520140000000     0.731860000000    -0.0291958  
C567     C      0.864380000000     0.983160000000     0.773630000000     0.0455742  
C568     C      0.864610000000     0.521410000000     0.732680000000     0.207484   
C569     C      0.526390000000     0.897390000000     0.773620000000     0.026116   
C570     C      0.992280000000     0.897660000000     0.729310000000    -0.0231544  
C571     C      0.526970000000     0.864390000000     0.773020000000     0.0410792  
C572     C      0.990360000000     0.864540000000     0.730600000000     0.211478   
C573     C      0.526420000000     0.647130000000     0.740270000000     0.0247155  
C574     C      0.984290000000     0.648000000000     0.777020000000    -0.0259589  
C575     C      0.524970000000     0.614170000000     0.739440000000     0.0405737  
C576     C      0.984840000000     0.614810000000     0.778530000000     0.209684   
H1       H      0.351410000000     0.292740000000     0.039490000000     0.0305665  
H2       H      0.408830000000     0.294370000000     0.037920000000     0.036116   
H3       H      0.409380000000     0.217060000000     0.472870000000     0.0587947  
H4       H      0.346140000000     0.223630000000     0.446610000000     0.152698   
H5       H      0.100960000000     0.291600000000     0.470190000000     0.0344622  
H6       H      0.158480000000     0.291240000000     0.468990000000     0.0393992  
H7       H      0.159740000000     0.226190000000     0.046280000000     0.0596681  
H8       H      0.097250000000     0.198590000000     0.039300000000     0.151728   
H9       H      0.294870000000     0.353210000000     0.473140000000     0.0300966  
H10      H      0.296430000000     0.411000000000     0.474070000000     0.0360844  
H11      H      0.217890000000     0.411850000000     0.037580000000     0.0602739  
H12      H      0.224010000000     0.349230000000     0.064810000000     0.154563   
H13      H      0.286480000000     0.103330000000     0.043150000000     0.0300998  
H14      H      0.286240000000     0.160750000000     0.044320000000     0.0376674  
H15      H      0.218140000000     0.162140000000     0.969710000000     0.0597333  
H16      H      0.190710000000     0.099230000000     0.978280000000     0.153488   
H17      H      0.286260000000     0.047780000000     0.410290000000     0.0331688  
H18      H      0.285670000000     0.049460000000     0.352560000000     0.0354401  
H19      H      0.223100000000     0.470180000000     0.351090000000     0.0583078  
H20      H      0.195290000000     0.476130000000     0.413710000000     0.153345   
H21      H      0.294910000000     0.035400000000     0.159720000000     0.0388546  
H22      H      0.295840000000     0.034620000000     0.102150000000     0.0342693  
H23      H      0.214510000000     0.974720000000     0.101550000000     0.0576199  
H24      H      0.193560000000     0.982540000000     0.166790000000     0.145276   
H25      H      0.469550000000     0.290950000000     0.409840000000     0.0301844  
H26      H      0.468310000000     0.290030000000     0.352320000000     0.034505   
H27      H      0.045400000000     0.224710000000     0.351700000000     0.0597651  
H28      H      0.038450000000     0.197780000000     0.414400000000     0.151101   
H29      H      0.972170000000     0.218350000000     0.159920000000     0.0313971  
H30      H      0.972710000000     0.217450000000     0.102360000000     0.0363986  
H31      H      0.037380000000     0.295080000000     0.101700000000     0.0632401  
H32      H      0.064850000000     0.287950000000     0.164200000000     0.154807   
H33      H      0.160300000000     0.479030000000     0.295740000000     0.0286084  
H34      H      0.102730000000     0.480040000000     0.297140000000     0.0332567  
H35      H      0.101740000000     0.040290000000     0.216080000000     0.0559987  
H36      H      0.166740000000     0.032310000000     0.194570000000     0.141566   
H37      H      0.351960000000     0.468110000000     0.290360000000     0.0293089  
H38      H      0.409700000000     0.469700000000     0.292020000000     0.0348074  
H39      H      0.410060000000     0.034790000000     0.214750000000     0.0608297  
H40      H      0.347280000000     0.061210000000     0.221330000000     0.15442    
H41      H      0.041250000000     0.352100000000     0.290500000000     0.030783   
H42      H      0.040560000000     0.409550000000     0.291270000000     0.0341696  
H43      H      0.478510000000     0.410150000000     0.211570000000     0.0598288  
H44      H      0.450810000000     0.347480000000     0.218150000000     0.15243    
H45      H      0.041210000000     0.101670000000     0.223930000000     0.0306049  
H46      H      0.043360000000     0.158990000000     0.225020000000     0.0361109  
H47      H      0.467620000000     0.160750000000     0.291850000000     0.0586365  
H48      H      0.474720000000     0.097220000000     0.318470000000     0.151815   
H49      H      0.351410000000     0.292740000000     0.539490000000     0.0308407  
H50      H      0.408830000000     0.294370000000     0.537920000000     0.0364554  
H51      H      0.409380000000     0.217060000000     0.972870000000     0.0592964  
H52      H      0.346140000000     0.223630000000     0.946610000000     0.153003   
H53      H      0.100960000000     0.291600000000     0.970190000000     0.0349993  
H54      H      0.158480000000     0.291240000000     0.968990000000     0.0396321  
H55      H      0.159740000000     0.226190000000     0.546280000000     0.0598081  
H56      H      0.097250000000     0.198590000000     0.539300000000     0.152657   
H57      H      0.294870000000     0.353210000000     0.973140000000     0.0305168  
H58      H      0.296430000000     0.411000000000     0.974070000000     0.0367242  
H59      H      0.217890000000     0.411850000000     0.537580000000     0.0605641  
H60      H      0.224010000000     0.349230000000     0.564810000000     0.154582   
H61      H      0.286480000000     0.103330000000     0.543150000000     0.0303648  
H62      H      0.286240000000     0.160750000000     0.544320000000     0.0378791  
H63      H      0.218140000000     0.162140000000     0.469710000000     0.0595962  
H64      H      0.190710000000     0.099230000000     0.478270000000     0.151537   
H65      H      0.286260000000     0.047780000000     0.910290000000     0.0339433  
H66      H      0.285670000000     0.049460000000     0.852550000000     0.0356563  
H67      H      0.223100000000     0.470180000000     0.851090000000     0.0584655  
H68      H      0.195290000000     0.476130000000     0.913710000000     0.154045   
H69      H      0.294910000000     0.035400000000     0.659720000000     0.0389273  
H70      H      0.295840000000     0.034620000000     0.602150000000     0.034468   
H71      H      0.214510000000     0.974720000000     0.601550000000     0.0578053  
H72      H      0.193560000000     0.982540000000     0.666790000000     0.145353   
H73      H      0.469550000000     0.290950000000     0.909840000000     0.0309948  
H74      H      0.468310000000     0.290030000000     0.852320000000     0.0347342  
H75      H      0.045400000000     0.224710000000     0.851690000000     0.0599243  
H76      H      0.038450000000     0.197780000000     0.914400000000     0.151816   
H77      H      0.972170000000     0.218350000000     0.659920000000     0.0314856  
H78      H      0.972710000000     0.217450000000     0.602360000000     0.0366432  
H79      H      0.037380000000     0.295080000000     0.601700000000     0.0634637  
H80      H      0.064850000000     0.287950000000     0.664200000000     0.154868   
H81      H      0.160300000000     0.479030000000     0.795740000000     0.0287497  
H82      H      0.102730000000     0.480040000000     0.797140000000     0.0334608  
H83      H      0.101740000000     0.040290000000     0.716080000000     0.0561011  
H84      H      0.166740000000     0.032310000000     0.694570000000     0.141647   
H85      H      0.351960000000     0.468110000000     0.790350000000     0.0294609  
H86      H      0.409700000000     0.469700000000     0.792010000000     0.0350347  
H87      H      0.410060000000     0.034790000000     0.714750000000     0.0609332  
H88      H      0.347280000000     0.061210000000     0.721330000000     0.154478   
H89      H      0.041250000000     0.352100000000     0.790500000000     0.030954   
H90      H      0.040560000000     0.409550000000     0.791280000000     0.0343544  
H91      H      0.478510000000     0.410150000000     0.711570000000     0.0599378  
H92      H      0.450810000000     0.347480000000     0.718150000000     0.152494   
H93      H      0.041210000000     0.101670000000     0.723930000000     0.0306902  
H94      H      0.043360000000     0.158990000000     0.725020000000     0.0361697  
H95      H      0.467620000000     0.160750000000     0.791850000000     0.0587777  
H96      H      0.474720000000     0.097220000000     0.818470000000     0.152039   
H97      H      0.351410000000     0.792740000000     0.039490000000     0.0307545  
H98      H      0.408830000000     0.794370000000     0.037920000000     0.0363461  
H99      H      0.409380000000     0.717060000000     0.472870000000     0.058883   
H100     H      0.346140000000     0.723630000000     0.446610000000     0.152761   
H101     H      0.100960000000     0.791610000000     0.470190000000     0.0346451  
H102     H      0.158480000000     0.791240000000     0.468990000000     0.0395304  
H103     H      0.159740000000     0.726190000000     0.046280000000     0.0597244  
H104     H      0.097250000000     0.698590000000     0.039300000000     0.151883   
H105     H      0.294870000000     0.853220000000     0.473140000000     0.0303162  
H106     H      0.296430000000     0.911000000000     0.474070000000     0.0368669  
H107     H      0.217890000000     0.911850000000     0.037580000000     0.0609518  
H108     H      0.224010000000     0.849230000000     0.064810000000     0.154792   
H109     H      0.286480000000     0.603330000000     0.043150000000     0.0302254  
H110     H      0.286240000000     0.660750000000     0.044320000000     0.0377301  
H111     H      0.218140000000     0.662140000000     0.969710000000     0.0598166  
H112     H      0.190710000000     0.599230000000     0.978280000000     0.153847   
H113     H      0.286260000000     0.547780000000     0.410290000000     0.0333923  
H114     H      0.285670000000     0.549460000000     0.352560000000     0.0355758  
H115     H      0.223100000000     0.970180000000     0.351090000000     0.0581917  
H116     H      0.195290000000     0.976130000000     0.413710000000     0.155153   
H117     H      0.294910000000     0.535410000000     0.159720000000     0.0389364  
H118     H      0.295840000000     0.534620000000     0.102150000000     0.0345543  
H119     H      0.214510000000     0.474720000000     0.101550000000     0.0570854  
H120     H      0.193560000000     0.482540000000     0.166790000000     0.143014   
H121     H      0.469550000000     0.790950000000     0.409840000000     0.0303811  
H122     H      0.468310000000     0.790030000000     0.352320000000     0.0346608  
H123     H      0.045400000000     0.724710000000     0.351700000000     0.0598347  
H124     H      0.038450000000     0.697780000000     0.414400000000     0.151266   
H125     H      0.972170000000     0.718350000000     0.159920000000     0.031462   
H126     H      0.972710000000     0.717450000000     0.102360000000     0.0364885  
H127     H      0.037380000000     0.795080000000     0.101700000000     0.0634515  
H128     H      0.064850000000     0.787950000000     0.164200000000     0.154887   
H129     H      0.160300000000     0.979030000000     0.295740000000     0.0288194  
H130     H      0.102730000000     0.980040000000     0.297140000000     0.033818   
H131     H      0.101740000000     0.540290000000     0.216080000000     0.0563201  
H132     H      0.166740000000     0.532310000000     0.194570000000     0.142979   
H133     H      0.351960000000     0.968110000000     0.290360000000     0.0296377  
H134     H      0.409700000000     0.969700000000     0.292020000000     0.0353993  
H135     H      0.410060000000     0.534790000000     0.214750000000     0.0610765  
H136     H      0.347280000000     0.561210000000     0.221330000000     0.154439   
H137     H      0.041250000000     0.852100000000     0.290500000000     0.0309711  
H138     H      0.040560000000     0.909550000000     0.291270000000     0.0348145  
H139     H      0.478510000000     0.910150000000     0.211570000000     0.0606776  
H140     H      0.450810000000     0.847480000000     0.218150000000     0.15269    
H141     H      0.041210000000     0.601670000000     0.223930000000     0.030732   
H142     H      0.043360000000     0.658990000000     0.225020000000     0.0361898  
H143     H      0.467620000000     0.660750000000     0.291850000000     0.0587091  
H144     H      0.474720000000     0.597220000000     0.318470000000     0.152168   
H145     H      0.351410000000     0.792740000000     0.539490000000     0.0310275  
H146     H      0.408830000000     0.794370000000     0.537920000000     0.0366843  
H147     H      0.409380000000     0.717060000000     0.972870000000     0.0593839  
H148     H      0.346140000000     0.723630000000     0.946610000000     0.153065   
H149     H      0.100960000000     0.791610000000     0.970190000000     0.0351799  
H150     H      0.158480000000     0.791240000000     0.968990000000     0.039761   
H151     H      0.159740000000     0.726190000000     0.546280000000     0.0598647  
H152     H      0.097250000000     0.698590000000     0.539300000000     0.152812   
H153     H      0.294870000000     0.853220000000     0.973140000000     0.0307329  
H154     H      0.296430000000     0.911000000000     0.974070000000     0.0375005  
H155     H      0.217890000000     0.911850000000     0.537580000000     0.0612406  
H156     H      0.224010000000     0.849230000000     0.564810000000     0.15481    
H157     H      0.286480000000     0.603330000000     0.543150000000     0.0304906  
H158     H      0.286240000000     0.660750000000     0.544320000000     0.0379417  
H159     H      0.218140000000     0.662140000000     0.469710000000     0.0596801  
H160     H      0.190710000000     0.599230000000     0.478270000000     0.151899   
H161     H      0.286260000000     0.547780000000     0.910290000000     0.0341652  
H162     H      0.285670000000     0.549460000000     0.852550000000     0.0357924  
H163     H      0.223100000000     0.970180000000     0.851090000000     0.0583487  
H164     H      0.195290000000     0.976130000000     0.913710000000     0.155841   
H165     H      0.294910000000     0.535410000000     0.659720000000     0.0390094  
H166     H      0.295840000000     0.534620000000     0.602150000000     0.0347535  
H167     H      0.214510000000     0.474720000000     0.601550000000     0.0572719  
H168     H      0.193560000000     0.482540000000     0.666790000000     0.143097   
H169     H      0.469550000000     0.790950000000     0.909840000000     0.0311882  
H170     H      0.468310000000     0.790030000000     0.852320000000     0.0348887  
H171     H      0.045400000000     0.724710000000     0.851690000000     0.0599933  
H172     H      0.038450000000     0.697780000000     0.914400000000     0.15198    
H173     H      0.972170000000     0.718350000000     0.659920000000     0.0315505  
H174     H      0.972710000000     0.717450000000     0.602360000000     0.0367331  
H175     H      0.037380000000     0.795080000000     0.601700000000     0.0636742  
H176     H      0.064850000000     0.787950000000     0.664200000000     0.154947   
H177     H      0.160300000000     0.979030000000     0.795740000000     0.0289588  
H178     H      0.102730000000     0.980040000000     0.797140000000     0.0340186  
H179     H      0.101740000000     0.540290000000     0.716080000000     0.0564226  
H180     H      0.166740000000     0.532310000000     0.694570000000     0.143058   
H181     H      0.351960000000     0.968110000000     0.790350000000     0.0297866  
H182     H      0.409700000000     0.969700000000     0.792010000000     0.0356225  
H183     H      0.410060000000     0.534790000000     0.714750000000     0.0611802  
H184     H      0.347280000000     0.561210000000     0.721330000000     0.154497   
H185     H      0.041250000000     0.852100000000     0.790500000000     0.0311408  
H186     H      0.040560000000     0.909550000000     0.791280000000     0.0349964  
H187     H      0.478510000000     0.910150000000     0.711570000000     0.0607846  
H188     H      0.450810000000     0.847480000000     0.718150000000     0.152753   
H189     H      0.041210000000     0.601670000000     0.723930000000     0.0308173  
H190     H      0.043360000000     0.658990000000     0.725020000000     0.0362485  
H191     H      0.467620000000     0.660750000000     0.791850000000     0.0588499  
H192     H      0.474720000000     0.597220000000     0.818470000000     0.152391   
H193     H      0.851410000000     0.292740000000     0.039490000000     0.0308027  
H194     H      0.908830000000     0.294370000000     0.037920000000     0.0368942  
H195     H      0.909380000000     0.217060000000     0.472870000000     0.0595535  
H196     H      0.846140000000     0.223630000000     0.446610000000     0.152901   
H197     H      0.600960000000     0.291600000000     0.470190000000     0.0346719  
H198     H      0.658480000000     0.291240000000     0.468990000000     0.0394793  
H199     H      0.659740000000     0.226190000000     0.046280000000     0.0597291  
H200     H      0.597250000000     0.198590000000     0.039300000000     0.152021   
H201     H      0.794870000000     0.353210000000     0.473140000000     0.0302537  
H202     H      0.796430000000     0.411000000000     0.474070000000     0.0363211  
H203     H      0.717890000000     0.411850000000     0.037580000000     0.0603693  
H204     H      0.724010000000     0.349230000000     0.064810000000     0.154627   
H205     H      0.786480000000     0.103330000000     0.043150000000     0.0302899  
H206     H      0.786240000000     0.160750000000     0.044320000000     0.037814   
H207     H      0.718140000000     0.162140000000     0.969710000000     0.0597731  
H208     H      0.690710000000     0.099230000000     0.978280000000     0.153642   
H209     H      0.786260000000     0.047780000000     0.410290000000     0.0333499  
H210     H      0.785670000000     0.049460000000     0.352560000000     0.0355819  
H211     H      0.723100000000     0.470180000000     0.351090000000     0.0583948  
H212     H      0.695290000000     0.476130000000     0.413710000000     0.1535     
H213     H      0.794910000000     0.035400000000     0.159720000000     0.038995   
H214     H      0.795840000000     0.034620000000     0.102150000000     0.0344923  
H215     H      0.714510000000     0.974720000000     0.101550000000     0.0577219  
H216     H      0.693560000000     0.982540000000     0.166790000000     0.14535    
H217     H      0.969550000000     0.290950000000     0.409840000000     0.0307094  
H218     H      0.968310000000     0.290030000000     0.352320000000     0.0347413  
H219     H      0.545400000000     0.224710000000     0.351700000000     0.0599116  
H220     H      0.538450000000     0.197780000000     0.414400000000     0.152002   
H221     H      0.472170000000     0.218350000000     0.159920000000     0.0310141  
H222     H      0.472710000000     0.217450000000     0.102360000000     0.0357799  
H223     H      0.537380000000     0.295080000000     0.101700000000     0.0635561  
H224     H      0.564850000000     0.287950000000     0.164200000000     0.154818   
H225     H      0.660300000000     0.479030000000     0.295740000000     0.0286835  
H226     H      0.602730000000     0.480040000000     0.297140000000     0.0334482  
H227     H      0.601740000000     0.040290000000     0.216080000000     0.0561975  
H228     H      0.666740000000     0.032310000000     0.194570000000     0.141644   
H229     H      0.851960000000     0.468110000000     0.290360000000     0.0295314  
H230     H      0.909700000000     0.469700000000     0.292020000000     0.0355871  
H231     H      0.910060000000     0.034790000000     0.214750000000     0.0616057  
H232     H      0.847280000000     0.061210000000     0.221330000000     0.154631   
H233     H      0.541250000000     0.352100000000     0.290500000000     0.0310338  
H234     H      0.540560000000     0.409550000000     0.291270000000     0.0344801  
H235     H      0.978510000000     0.410150000000     0.211570000000     0.0603929  
H236     H      0.950810000000     0.347480000000     0.218150000000     0.152755   
H237     H      0.541210000000     0.101670000000     0.223930000000     0.0308558  
H238     H      0.543360000000     0.158990000000     0.225020000000     0.0363025  
H239     H      0.967620000000     0.160750000000     0.291850000000     0.0587764  
H240     H      0.974720000000     0.097220000000     0.318470000000     0.15379    
H241     H      0.851410000000     0.292740000000     0.539490000000     0.0310763  
H242     H      0.908830000000     0.294370000000     0.537920000000     0.0372324  
H243     H      0.909380000000     0.217060000000     0.972870000000     0.0600493  
H244     H      0.846140000000     0.223630000000     0.946610000000     0.153204   
H245     H      0.600960000000     0.291600000000     0.970190000000     0.0352079  
H246     H      0.658480000000     0.291240000000     0.968990000000     0.0397116  
H247     H      0.659740000000     0.226190000000     0.546280000000     0.059869   
H248     H      0.597250000000     0.198590000000     0.539300000000     0.152951   
H249     H      0.794870000000     0.353210000000     0.973140000000     0.030671   
H250     H      0.796430000000     0.411000000000     0.974070000000     0.0369571  
H251     H      0.717890000000     0.411850000000     0.537580000000     0.0606596  
H252     H      0.724010000000     0.349230000000     0.564810000000     0.154646   
H253     H      0.786480000000     0.103330000000     0.543150000000     0.0305541  
H254     H      0.786240000000     0.160750000000     0.544320000000     0.0380247  
H255     H      0.718140000000     0.162140000000     0.469710000000     0.0596356  
H256     H      0.690710000000     0.099230000000     0.478270000000     0.151695   
H257     H      0.786260000000     0.047780000000     0.910290000000     0.0341211  
H258     H      0.785670000000     0.049460000000     0.852550000000     0.0357969  
H259     H      0.723100000000     0.470180000000     0.851090000000     0.0585521  
H260     H      0.695290000000     0.476130000000     0.913710000000     0.154198   
H261     H      0.794910000000     0.035400000000     0.659720000000     0.0390673  
H262     H      0.795840000000     0.034620000000     0.602150000000     0.0346903  
H263     H      0.714510000000     0.974720000000     0.601550000000     0.0579074  
H264     H      0.693560000000     0.982540000000     0.666790000000     0.145427   
H265     H      0.969550000000     0.290950000000     0.909840000000     0.0315156  
H266     H      0.968310000000     0.290030000000     0.852320000000     0.034969   
H267     H      0.545400000000     0.224710000000     0.851690000000     0.0600701  
H268     H      0.538450000000     0.197780000000     0.914400000000     0.152714   
H269     H      0.472170000000     0.218350000000     0.659920000000     0.0311037  
H270     H      0.472710000000     0.217450000000     0.602360000000     0.036026   
H271     H      0.537380000000     0.295080000000     0.601700000000     0.06378    
H272     H      0.564850000000     0.287950000000     0.664200000000     0.154878   
H273     H      0.660300000000     0.479030000000     0.795740000000     0.0288244  
H274     H      0.602730000000     0.480040000000     0.797140000000     0.0336516  
H275     H      0.601740000000     0.040290000000     0.716080000000     0.0563     
H276     H      0.666740000000     0.032310000000     0.694570000000     0.141725   
H277     H      0.851960000000     0.468110000000     0.790350000000     0.029682   
H278     H      0.909700000000     0.469700000000     0.792010000000     0.0358109  
H279     H      0.910060000000     0.034790000000     0.714750000000     0.0617074  
H280     H      0.847280000000     0.061210000000     0.721330000000     0.154688   
H281     H      0.541250000000     0.352100000000     0.790500000000     0.0312038  
H282     H      0.540560000000     0.409550000000     0.791280000000     0.0346642  
H283     H      0.978510000000     0.410150000000     0.711570000000     0.060501   
H284     H      0.950810000000     0.347480000000     0.718150000000     0.152818   
H285     H      0.541210000000     0.101670000000     0.723930000000     0.0309412  
H286     H      0.543360000000     0.158990000000     0.725020000000     0.0363615  
H287     H      0.967620000000     0.160750000000     0.791850000000     0.0589156  
H288     H      0.974720000000     0.097220000000     0.818470000000     0.154005   
H289     H      0.851410000000     0.792740000000     0.039490000000     0.0309892  
H290     H      0.908830000000     0.794370000000     0.037920000000     0.0371208  
H291     H      0.909380000000     0.717060000000     0.472870000000     0.0596402  
H292     H      0.846140000000     0.723630000000     0.446610000000     0.152964   
H293     H      0.600960000000     0.791610000000     0.470190000000     0.0348542  
H294     H      0.658480000000     0.791240000000     0.468990000000     0.0396101  
H295     H      0.659740000000     0.726190000000     0.046280000000     0.0597854  
H296     H      0.597250000000     0.698590000000     0.039300000000     0.152177   
H297     H      0.794870000000     0.853220000000     0.473140000000     0.0304719  
H298     H      0.796430000000     0.911000000000     0.474070000000     0.0370999  
H299     H      0.717890000000     0.911850000000     0.037580000000     0.0610455  
H300     H      0.724010000000     0.849230000000     0.064810000000     0.154856   
H301     H      0.786480000000     0.603330000000     0.043150000000     0.0304152  
H302     H      0.786240000000     0.660750000000     0.044320000000     0.0378763  
H303     H      0.718140000000     0.662140000000     0.969710000000     0.0598563  
H304     H      0.690710000000     0.599230000000     0.978280000000     0.154      
H305     H      0.786260000000     0.547780000000     0.410290000000     0.0335727  
H306     H      0.785670000000     0.549460000000     0.352560000000     0.035717   
H307     H      0.723100000000     0.970180000000     0.351090000000     0.0582791  
H308     H      0.695290000000     0.976130000000     0.413710000000     0.155303   
H309     H      0.794910000000     0.535410000000     0.159720000000     0.0390765  
H310     H      0.795840000000     0.534620000000     0.102150000000     0.0347766  
H311     H      0.714510000000     0.474720000000     0.101550000000     0.0571883  
H312     H      0.693560000000     0.482540000000     0.166790000000     0.143093   
H313     H      0.969550000000     0.790950000000     0.409840000000     0.0309029  
H314     H      0.968310000000     0.790030000000     0.352320000000     0.0348948  
H315     H      0.545400000000     0.724710000000     0.351700000000     0.0599814  
H316     H      0.538450000000     0.697780000000     0.414400000000     0.152167   
H317     H      0.472170000000     0.718350000000     0.159920000000     0.0310794  
H318     H      0.472710000000     0.717450000000     0.102360000000     0.0358708  
H319     H      0.537380000000     0.795080000000     0.101700000000     0.0637665  
H320     H      0.564850000000     0.787950000000     0.164200000000     0.154897   
H321     H      0.660300000000     0.979030000000     0.295740000000     0.0288939  
H322     H      0.602730000000     0.980040000000     0.297140000000     0.0340086  
H323     H      0.601740000000     0.540290000000     0.216080000000     0.0565192  
H324     H      0.666740000000     0.532310000000     0.194570000000     0.143056   
H325     H      0.851960000000     0.968110000000     0.290360000000     0.0298577  
H326     H      0.909700000000     0.969700000000     0.292020000000     0.0361726  
H327     H      0.910060000000     0.534790000000     0.214750000000     0.0618514  
H328     H      0.847280000000     0.561210000000     0.221330000000     0.15465    
H329     H      0.541250000000     0.852100000000     0.290500000000     0.0312214  
H330     H      0.540560000000     0.909550000000     0.291270000000     0.0351238  
H331     H      0.978510000000     0.910150000000     0.211570000000     0.0612352  
H332     H      0.950810000000     0.847480000000     0.218150000000     0.153012   
H333     H      0.541210000000     0.601670000000     0.223930000000     0.0309832  
H334     H      0.543360000000     0.658990000000     0.225020000000     0.0363811  
H335     H      0.967620000000     0.660750000000     0.291850000000     0.0588484  
H336     H      0.974720000000     0.597220000000     0.318470000000     0.15414    
H337     H      0.851410000000     0.792740000000     0.539490000000     0.0312616  
H338     H      0.908830000000     0.794370000000     0.537920000000     0.0374578  
H339     H      0.909380000000     0.717060000000     0.972870000000     0.0601352  
H340     H      0.846140000000     0.723630000000     0.946610000000     0.153265   
H341     H      0.600960000000     0.791610000000     0.970190000000     0.0353879  
H342     H      0.658480000000     0.791240000000     0.968990000000     0.0398401  
H343     H      0.659740000000     0.726190000000     0.546280000000     0.0599256  
H344     H      0.597250000000     0.698590000000     0.539300000000     0.153107   
H345     H      0.794870000000     0.853220000000     0.973140000000     0.0308856  
H346     H      0.796430000000     0.911000000000     0.974070000000     0.0377297  
H347     H      0.717890000000     0.911850000000     0.537580000000     0.0613345  
H348     H      0.724010000000     0.849230000000     0.564810000000     0.154874   
H349     H      0.786480000000     0.603330000000     0.543150000000     0.0306795  
H350     H      0.786240000000     0.660750000000     0.544320000000     0.0380869  
H351     H      0.718140000000     0.662140000000     0.469710000000     0.0597195  
H352     H      0.690710000000     0.599230000000     0.478270000000     0.152057   
H353     H      0.786260000000     0.547780000000     0.910290000000     0.0343424  
H354     H      0.785670000000     0.549460000000     0.852550000000     0.0359323  
H355     H      0.723100000000     0.970180000000     0.851090000000     0.0584357  
H356     H      0.695290000000     0.976130000000     0.913710000000     0.155989   
H357     H      0.794910000000     0.535410000000     0.659720000000     0.0391491  
H358     H      0.795840000000     0.534620000000     0.602150000000     0.034975   
H359     H      0.714510000000     0.474720000000     0.601550000000     0.0573749  
H360     H      0.693560000000     0.482540000000     0.666790000000     0.143176   
H361     H      0.969550000000     0.790950000000     0.909840000000     0.0317058  
H362     H      0.968310000000     0.790030000000     0.852320000000     0.0351212  
H363     H      0.545400000000     0.724710000000     0.851690000000     0.0601394  
H364     H      0.538450000000     0.697780000000     0.914400000000     0.152878   
H365     H      0.472170000000     0.718350000000     0.659920000000     0.0311691  
H366     H      0.472710000000     0.717450000000     0.602360000000     0.0361169  
H367     H      0.537380000000     0.795080000000     0.601700000000     0.0639895  
H368     H      0.564850000000     0.787950000000     0.664200000000     0.154958   
H369     H      0.660300000000     0.979030000000     0.795740000000     0.0290329  
H370     H      0.602730000000     0.980040000000     0.797140000000     0.0342084  
H371     H      0.601740000000     0.540290000000     0.716080000000     0.0566218  
H372     H      0.666740000000     0.532310000000     0.694570000000     0.143135   
H373     H      0.851960000000     0.968110000000     0.790350000000     0.0300052  
H374     H      0.909700000000     0.969700000000     0.792010000000     0.0363923  
H375     H      0.910060000000     0.534790000000     0.714750000000     0.0619534  
H376     H      0.847280000000     0.561210000000     0.721330000000     0.154707   
H377     H      0.541250000000     0.852100000000     0.790500000000     0.0313902  
H378     H      0.540560000000     0.909550000000     0.791280000000     0.035305   
H379     H      0.978510000000     0.910150000000     0.711570000000     0.0613413  
H380     H      0.950810000000     0.847480000000     0.718150000000     0.153074   
H381     H      0.541210000000     0.601670000000     0.723930000000     0.0310686  
H382     H      0.543360000000     0.658990000000     0.725020000000     0.0364401  
H383     H      0.967620000000     0.660750000000     0.791850000000     0.0589873  
H384     H      0.974720000000     0.597220000000     0.818470000000     0.154354   
N1       N      0.413130000000     0.255810000000     0.505290000000    -0.178178   
N2       N      0.347370000000     0.255480000000     0.505320000000    -0.218445   
N3       N      0.163150000000     0.258700000000     0.507570000000    -0.176874   
N4       N      0.097390000000     0.257280000000     0.507330000000    -0.217325   
N5       N      0.257140000000     0.415430000000     0.505710000000    -0.17747    
N6       N      0.256960000000     0.349660000000     0.006610000000    -0.220279   
N7       N      0.252340000000     0.165450000000     0.006920000000    -0.179522   
N8       N      0.250760000000     0.099730000000     0.507340000000    -0.218638   
N9       N      0.254590000000     0.509760000000     0.347840000000    -0.178116   
N10      N      0.253210000000     0.509470000000     0.413570000000    -0.21802    
N11      N      0.255050000000     0.504860000000     0.097930000000    -0.178358   
N12      N      0.255660000000     0.503570000000     0.163570000000    -0.217363   
N13      N      0.506800000000     0.257330000000     0.347960000000    -0.177868   
N14      N      0.506630000000     0.256580000000     0.413740000000    -0.218244   
N15      N      0.005070000000     0.256230000000     0.098000000000    -0.180186   
N16      N      0.506340000000     0.255600000000     0.163730000000    -0.217358   
N17      N      0.098300000000     0.509960000000     0.256490000000    -0.178195   
N18      N      0.163960000000     0.010960000000     0.256560000000    -0.220273   
N19      N      0.413920000000     0.502540000000     0.253630000000    -0.177244   
N20      N      0.348150000000     0.002570000000     0.253450000000    -0.220847   
N21      N      0.009340000000     0.413850000000     0.251550000000    -0.181523   
N22      N      0.008150000000     0.348110000000     0.252330000000    -0.219407   
N23      N      0.005500000000     0.163900000000     0.258360000000    -0.180047   
N24      N      0.004640000000     0.098120000000     0.258910000000    -0.221783   
N25      N      0.413130000000     0.255810000000     0.005280000000    -0.181558   
N26      N      0.347370000000     0.255480000000     0.005320000000    -0.220595   
N27      N      0.163150000000     0.258700000000     0.007560000000    -0.179104   
N28      N      0.097390000000     0.257280000000     0.007330000000    -0.220624   
N29      N      0.257140000000     0.415430000000     0.005710000000    -0.180805   
N30      N      0.256960000000     0.349660000000     0.506610000000    -0.218055   
N31      N      0.252340000000     0.165450000000     0.506920000000    -0.177285   
N32      N      0.250760000000     0.099730000000     0.007340000000    -0.221953   
N33      N      0.254590000000     0.509760000000     0.847850000000    -0.177997   
N34      N      0.253210000000     0.509470000000     0.913570000000    -0.217545   
N35      N      0.255050000000     0.504860000000     0.597930000000    -0.178413   
N36      N      0.255660000000     0.503570000000     0.663570000000    -0.21736    
N37      N      0.506800000000     0.257330000000     0.847950000000    -0.177926   
N38      N      0.506630000000     0.256580000000     0.913740000000    -0.217751   
N39      N      0.005070000000     0.256230000000     0.598000000000    -0.180239   
N40      N      0.506340000000     0.255600000000     0.663730000000    -0.217361   
N41      N      0.098300000000     0.509960000000     0.756490000000    -0.178171   
N42      N      0.163960000000     0.010960000000     0.756560000000    -0.220257   
N43      N      0.413920000000     0.502540000000     0.753630000000    -0.17721    
N44      N      0.348150000000     0.002570000000     0.753450000000    -0.220861   
N45      N      0.009340000000     0.413850000000     0.751550000000    -0.181497   
N46      N      0.008150000000     0.348110000000     0.752330000000    -0.219371   
N47      N      0.005500000000     0.163900000000     0.758360000000    -0.180018   
N48      N      0.004640000000     0.098120000000     0.758910000000    -0.221765   
N49      N      0.413130000000     0.755810000000     0.505290000000    -0.178206   
N50      N      0.347370000000     0.755480000000     0.505320000000    -0.218428   
N51      N      0.163150000000     0.758700000000     0.507570000000    -0.176858   
N52      N      0.097390000000     0.757280000000     0.507330000000    -0.217236   
N53      N      0.257140000000     0.915430000000     0.505710000000    -0.176976   
N54      N      0.256960000000     0.849660000000     0.006610000000    -0.220246   
N55      N      0.252340000000     0.665450000000     0.006920000000    -0.179505   
N56      N      0.250760000000     0.599730000000     0.507340000000    -0.218703   
N57      N      0.254590000000     0.009760000000     0.347840000000    -0.180319   
N58      N      0.253210000000     0.009470000000     0.413570000000    -0.221287   
N59      N      0.255050000000     0.004860000000     0.097930000000    -0.181647   
N60      N      0.255660000000     0.003570000000     0.163570000000    -0.219531   
N61      N      0.506800000000     0.757330000000     0.347960000000    -0.17785    
N62      N      0.506630000000     0.756580000000     0.413740000000    -0.218214   
N63      N      0.005070000000     0.756230000000     0.098000000000    -0.180145   
N64      N      0.506340000000     0.755600000000     0.163730000000    -0.217333   
N65      N      0.098300000000     0.009960000000     0.256490000000    -0.181509   
N66      N      0.163960000000     0.510960000000     0.256560000000    -0.218113   
N67      N      0.413920000000     0.002540000000     0.253630000000    -0.180518   
N68      N      0.348150000000     0.502570000000     0.253450000000    -0.218654   
N69      N      0.009340000000     0.913850000000     0.251550000000    -0.181009   
N70      N      0.008150000000     0.848110000000     0.252330000000    -0.219379   
N71      N      0.005500000000     0.663900000000     0.258360000000    -0.180026   
N72      N      0.004640000000     0.598120000000     0.258910000000    -0.221858   
N73      N      0.413130000000     0.755810000000     0.005280000000    -0.181579   
N74      N      0.347370000000     0.755480000000     0.005320000000    -0.220573   
N75      N      0.163150000000     0.758700000000     0.007560000000    -0.179082   
N76      N      0.097390000000     0.757280000000     0.007330000000    -0.220526   
N77      N      0.257140000000     0.915430000000     0.005710000000    -0.180295   
N78      N      0.256960000000     0.849660000000     0.506610000000    -0.218031   
N79      N      0.252340000000     0.665450000000     0.506920000000    -0.17727    
N80      N      0.250760000000     0.599730000000     0.007340000000    -0.222015   
N81      N      0.254590000000     0.009760000000     0.847850000000    -0.180194   
N82      N      0.253210000000     0.009470000000     0.913570000000    -0.220796   
N83      N      0.255050000000     0.004860000000     0.597930000000    -0.181699   
N84      N      0.255660000000     0.003570000000     0.663570000000    -0.219526   
N85      N      0.506800000000     0.757330000000     0.847950000000    -0.177907   
N86      N      0.506630000000     0.756580000000     0.913740000000    -0.217723   
N87      N      0.005070000000     0.756230000000     0.598000000000    -0.180198   
N88      N      0.506340000000     0.755600000000     0.663730000000    -0.217337   
N89      N      0.098300000000     0.009960000000     0.756490000000    -0.181476   
N90      N      0.163960000000     0.510960000000     0.756560000000    -0.218104   
N91      N      0.413920000000     0.002540000000     0.753630000000    -0.180475   
N92      N      0.348150000000     0.502570000000     0.753450000000    -0.218672   
N93      N      0.009340000000     0.913850000000     0.751550000000    -0.180985   
N94      N      0.008150000000     0.848110000000     0.752330000000    -0.219343   
N95      N      0.005500000000     0.663900000000     0.758360000000    -0.179998   
N96      N      0.004640000000     0.598120000000     0.758910000000    -0.22184    
N97      N      0.913130000000     0.255810000000     0.505290000000    -0.177681   
N98      N      0.847370000000     0.255480000000     0.505320000000    -0.218418   
N99      N      0.663150000000     0.258700000000     0.507570000000    -0.176857   
N100     N      0.597390000000     0.257280000000     0.507330000000    -0.21739    
N101     N      0.757140000000     0.415430000000     0.505710000000    -0.177431   
N102     N      0.756960000000     0.349660000000     0.006610000000    -0.220276   
N103     N      0.752340000000     0.165450000000     0.006920000000    -0.179521   
N104     N      0.750760000000     0.099730000000     0.507340000000    -0.218543   
N105     N      0.754590000000     0.509760000000     0.347840000000    -0.17808    
N106     N      0.753210000000     0.509470000000     0.413570000000    -0.217995   
N107     N      0.755050000000     0.504860000000     0.097930000000    -0.178321   
N108     N      0.755660000000     0.503570000000     0.163570000000    -0.217352   
N109     N      0.006800000000     0.257330000000     0.347960000000    -0.180073   
N110     N      0.006630000000     0.256580000000     0.413740000000    -0.221525   
N111     N      0.505070000000     0.256230000000     0.098000000000    -0.176874   
N112     N      0.006340000000     0.255600000000     0.163730000000    -0.219573   
N113     N      0.598300000000     0.509960000000     0.256490000000    -0.178247   
N114     N      0.663960000000     0.010960000000     0.256560000000    -0.220276   
N115     N      0.913920000000     0.502540000000     0.253630000000    -0.176749   
N116     N      0.848150000000     0.002570000000     0.253450000000    -0.220823   
N117     N      0.509350000000     0.413850000000     0.251550000000    -0.178175   
N118     N      0.508150000000     0.348110000000     0.252330000000    -0.217287   
N119     N      0.505500000000     0.163900000000     0.258360000000    -0.177832   
N120     N      0.504640000000     0.098120000000     0.258910000000    -0.218477   
N121     N      0.913130000000     0.255810000000     0.005280000000    -0.181045   
N122     N      0.847370000000     0.255480000000     0.005320000000    -0.220559   
N123     N      0.663150000000     0.258700000000     0.007560000000    -0.179085   
N124     N      0.597390000000     0.257280000000     0.007330000000    -0.220687   
N125     N      0.757140000000     0.415430000000     0.005710000000    -0.180757   
N126     N      0.756960000000     0.349660000000     0.506610000000    -0.218058   
N127     N      0.752340000000     0.165450000000     0.506920000000    -0.177289   
N128     N      0.750760000000     0.099730000000     0.007340000000    -0.221851   
N129     N      0.754590000000     0.509760000000     0.847850000000    -0.177962   
N130     N      0.753210000000     0.509470000000     0.913570000000    -0.217521   
N131     N      0.755050000000     0.504860000000     0.597930000000    -0.178376   
N132     N      0.755660000000     0.503570000000     0.663570000000    -0.21735    
N133     N      0.006800000000     0.257330000000     0.847950000000    -0.180119   
N134     N      0.006630000000     0.256580000000     0.913740000000    -0.221015   
N135     N      0.505070000000     0.256230000000     0.598000000000    -0.176929   
N136     N      0.006340000000     0.255600000000     0.663730000000    -0.219574   
N137     N      0.598300000000     0.509960000000     0.756490000000    -0.178223   
N138     N      0.663960000000     0.010960000000     0.756560000000    -0.220261   
N139     N      0.913920000000     0.502540000000     0.753630000000    -0.176716   
N140     N      0.848150000000     0.002570000000     0.753450000000    -0.220836   
N141     N      0.509350000000     0.413850000000     0.751550000000    -0.178156   
N142     N      0.508150000000     0.348110000000     0.752330000000    -0.217256   
N143     N      0.505500000000     0.163900000000     0.758360000000    -0.17781    
N144     N      0.504640000000     0.098120000000     0.758910000000    -0.218468   
N145     N      0.913130000000     0.755810000000     0.505290000000    -0.17771    
N146     N      0.847370000000     0.755480000000     0.505320000000    -0.218402   
N147     N      0.663150000000     0.758700000000     0.507570000000    -0.176841   
N148     N      0.597390000000     0.757280000000     0.507330000000    -0.217301   
N149     N      0.757140000000     0.915430000000     0.505710000000    -0.176939   
N150     N      0.756960000000     0.849660000000     0.006610000000    -0.220244   
N151     N      0.752340000000     0.665450000000     0.006920000000    -0.179503   
N152     N      0.750760000000     0.599730000000     0.507340000000    -0.218608   
N153     N      0.754590000000     0.009760000000     0.347840000000    -0.180277   
N154     N      0.753210000000     0.009470000000     0.413570000000    -0.221256   
N155     N      0.755050000000     0.004860000000     0.097930000000    -0.181603   
N156     N      0.755660000000     0.003570000000     0.163570000000    -0.219515   
N157     N      0.006800000000     0.757330000000     0.347960000000    -0.180049   
N158     N      0.006630000000     0.756580000000     0.413740000000    -0.221487   
N159     N      0.505070000000     0.756230000000     0.098000000000    -0.17684    
N160     N      0.006340000000     0.755600000000     0.163730000000    -0.219544   
N161     N      0.598300000000     0.009960000000     0.256490000000    -0.181558   
N162     N      0.663960000000     0.510960000000     0.256560000000    -0.218118   
N163     N      0.913920000000     0.002540000000     0.253630000000    -0.180007   
N164     N      0.848150000000     0.502570000000     0.253450000000    -0.218638   
N165     N      0.509350000000     0.913850000000     0.251550000000    -0.177677   
N166     N      0.508150000000     0.848110000000     0.252330000000    -0.217267   
N167     N      0.505500000000     0.663900000000     0.258360000000    -0.177814   
N168     N      0.504640000000     0.598120000000     0.258910000000    -0.218554   
N169     N      0.913130000000     0.755810000000     0.005280000000    -0.181067   
N170     N      0.847370000000     0.755480000000     0.005320000000    -0.220538   
N171     N      0.663150000000     0.758700000000     0.007560000000    -0.179063   
N172     N      0.597390000000     0.757280000000     0.007330000000    -0.220589   
N173     N      0.757140000000     0.915430000000     0.005710000000    -0.180249   
N174     N      0.756960000000     0.849660000000     0.506610000000    -0.218035   
N175     N      0.752340000000     0.665450000000     0.506920000000    -0.177273   
N176     N      0.750760000000     0.599730000000     0.007340000000    -0.221914   
N177     N      0.754590000000     0.009760000000     0.847850000000    -0.180153   
N178     N      0.753210000000     0.009470000000     0.913570000000    -0.220766   
N179     N      0.755050000000     0.004860000000     0.597930000000    -0.181655   
N180     N      0.755660000000     0.003570000000     0.663570000000    -0.219511   
N181     N      0.006800000000     0.757330000000     0.847950000000    -0.180095   
N182     N      0.006630000000     0.756580000000     0.913740000000    -0.220979   
N183     N      0.505070000000     0.756230000000     0.598000000000    -0.176895   
N184     N      0.006340000000     0.755600000000     0.663730000000    -0.219545   
N185     N      0.598300000000     0.009960000000     0.756490000000    -0.181525   
N186     N      0.663960000000     0.510960000000     0.756560000000    -0.218109   
N187     N      0.913920000000     0.002540000000     0.753630000000    -0.179965   
N188     N      0.848150000000     0.502570000000     0.753450000000    -0.218656   
N189     N      0.509350000000     0.913850000000     0.751550000000    -0.17766    
N190     N      0.508150000000     0.848110000000     0.752330000000    -0.217236   
N191     N      0.505500000000     0.663900000000     0.758360000000    -0.177791   
N192     N      0.504640000000     0.598120000000     0.758910000000    -0.218546   
O1       O      0.501580000000     0.049510000000     0.283340000000    -0.544968   
O2       O      0.010160000000     0.460030000000     0.279570000000    -0.555929   
O3       O      0.050650000000     0.007810000000     0.282260000000    -0.552117   
O4       O      0.460990000000     0.500130000000     0.280620000000    -0.548711   
O5       O      0.461590000000     0.008120000000     0.228350000000    -0.551902   
O6       O      0.051470000000     0.507880000000     0.229320000000    -0.551356   
O7       O      0.505770000000     0.462280000000     0.226900000000    -0.548778   
O8       O      0.007410000000     0.052090000000     0.230830000000    -0.558198   
O9       O      0.479930000000     0.211720000000     0.261560000000    -0.548054   
O10      O      0.481190000000     0.301020000000     0.250050000000    -0.546092   
O11      O      0.480440000000     0.250880000000     0.211180000000    -0.549095   
O12      O      0.480720000000     0.261940000000     0.300520000000    -0.550378   
O13      O      0.032730000000     0.252410000000     0.300570000000    -0.549998   
O14      O      0.032670000000     0.259110000000     0.211020000000    -0.546229   
O15      O      0.033320000000     0.300560000000     0.258930000000    -0.549313   
O16      O      0.032030000000     0.210880000000     0.252580000000    -0.550562   
O17      O      0.299630000000     0.478170000000     0.256960000000    -0.552311   
O18      O      0.209760000000     0.482550000000     0.258030000000    -0.556961   
O19      O      0.253320000000     0.478720000000     0.211830000000    -0.54039    
O20      O      0.254290000000     0.481960000000     0.301590000000    -0.557084   
O21      O      0.258120000000     0.034730000000     0.299570000000    -0.547877   
O22      O      0.258130000000     0.031420000000     0.209670000000    -0.551377   
O23      O      0.212490000000     0.035280000000     0.253810000000    -0.539152   
O24      O      0.302240000000     0.030950000000     0.253700000000    -0.553585   
O25      O      0.227990000000     0.006590000000     0.050970000000    -0.553025   
O26      O      0.227470000000     0.504820000000     0.461090000000    -0.547832   
O27      O      0.229420000000     0.461700000000     0.007630000000    -0.553889   
O28      O      0.225960000000     0.051370000000     0.504450000000    -0.548919   
O29      O      0.278620000000     0.053500000000     0.009100000000    -0.556599   
O30      O      0.282000000000     0.463800000000     0.502040000000    -0.547969   
O31      O      0.279800000000     0.012580000000     0.460690000000    -0.554286   
O32      O      0.280950000000     0.506350000000     0.050370000000    -0.551411   
O33      O      0.500610000000     0.230260000000     0.050570000000    -0.547594   
O34      O      0.010320000000     0.230470000000     0.461200000000    -0.549209   
O35      O      0.050140000000     0.230740000000     0.010770000000    -0.544743   
O36      O      0.460730000000     0.230060000000     0.501030000000    -0.550948   
O37      O      0.460310000000     0.282210000000     0.009810000000    -0.552591   
O38      O      0.049880000000     0.282870000000     0.501980000000    -0.551523   
O39      O      0.501180000000     0.282550000000     0.461060000000    -0.554308   
O40      O      0.009040000000     0.282470000000     0.050650000000    -0.54756    
O41      O      0.300460000000     0.260790000000     0.031970000000    -0.554028   
O42      O      0.210810000000     0.254240000000     0.033170000000    -0.54624    
O43      O      0.258820000000     0.212740000000     0.032600000000    -0.550576   
O44      O      0.252420000000     0.302300000000     0.032620000000    -0.54795    
O45      O      0.260630000000     0.302260000000     0.480390000000    -0.550819   
O46      O      0.249200000000     0.212880000000     0.480610000000    -0.544963   
O47      O      0.210300000000     0.263120000000     0.481050000000    -0.548241   
O48      O      0.299550000000     0.251920000000     0.479870000000    -0.547297   
O49      O      0.348340000000     0.213240000000     0.467550000000    -0.290118   
O50      O      0.098870000000     0.219610000000     0.049660000000    -0.290457   
O51      O      0.214060000000     0.351140000000     0.043630000000    -0.28969    
O52      O      0.211160000000     0.101080000000     0.966880000000    -0.291131   
O53      O      0.216540000000     0.466310000000     0.411840000000    -0.290874   
O54      O      0.211620000000     0.968050000000     0.162820000000    -0.28672    
O55      O      0.048850000000     0.218760000000     0.412570000000    -0.29075    
O56      O      0.043770000000     0.298170000000     0.162570000000    -0.284509   
O57      O      0.163020000000     0.046730000000     0.212730000000    -0.287247   
O58      O      0.349140000000     0.040170000000     0.211060000000    -0.29526    
O59      O      0.472190000000     0.349000000000     0.208550000000    -0.284534   
O60      O      0.463630000000     0.099580000000     0.297910000000    -0.291792   
O61      O      0.501580000000     0.049510000000     0.783340000000    -0.544913   
O62      O      0.010160000000     0.460030000000     0.779570000000    -0.555858   
O63      O      0.050650000000     0.007810000000     0.782250000000    -0.552166   
O64      O      0.460990000000     0.500130000000     0.780620000000    -0.548634   
O65      O      0.461590000000     0.008120000000     0.728350000000    -0.551858   
O66      O      0.051470000000     0.507880000000     0.729310000000    -0.551198   
O67      O      0.505770000000     0.462280000000     0.726900000000    -0.548729   
O68      O      0.007410000000     0.052090000000     0.730830000000    -0.558166   
O69      O      0.479930000000     0.211720000000     0.761560000000    -0.547981   
O70      O      0.481190000000     0.301020000000     0.750050000000    -0.546006   
O71      O      0.480440000000     0.250880000000     0.711170000000    -0.548983   
O72      O      0.480720000000     0.261940000000     0.800520000000    -0.550256   
O73      O      0.032730000000     0.252410000000     0.800570000000    -0.549786   
O74      O      0.032670000000     0.259110000000     0.711020000000    -0.546445   
O75      O      0.033320000000     0.300560000000     0.758940000000    -0.549222   
O76      O      0.032030000000     0.210880000000     0.752580000000    -0.550554   
O77      O      0.299630000000     0.478170000000     0.756960000000    -0.552295   
O78      O      0.209760000000     0.482550000000     0.758030000000    -0.556967   
O79      O      0.253320000000     0.478720000000     0.711830000000    -0.540598   
O80      O      0.254290000000     0.481960000000     0.801580000000    -0.556937   
O81      O      0.258120000000     0.034730000000     0.799570000000    -0.547724   
O82      O      0.258130000000     0.031420000000     0.709670000000    -0.551393   
O83      O      0.212490000000     0.035280000000     0.753810000000    -0.539114   
O84      O      0.302240000000     0.030950000000     0.753700000000    -0.553555   
O85      O      0.227990000000     0.006590000000     0.550970000000    -0.554164   
O86      O      0.227470000000     0.504820000000     0.961090000000    -0.54245    
O87      O      0.229420000000     0.461700000000     0.507630000000    -0.553657   
O88      O      0.225960000000     0.051370000000     0.004450000000    -0.550177   
O89      O      0.278620000000     0.053500000000     0.509100000000    -0.556349   
O90      O      0.282000000000     0.463800000000     0.002030000000    -0.549112   
O91      O      0.279800000000     0.012580000000     0.960690000000    -0.54879    
O92      O      0.280950000000     0.506350000000     0.550370000000    -0.552534   
O93      O      0.500610000000     0.230260000000     0.550570000000    -0.548726   
O94      O      0.010320000000     0.230470000000     0.961200000000    -0.5438     
O95      O      0.050140000000     0.230740000000     0.510770000000    -0.544603   
O96      O      0.460730000000     0.230060000000     0.001030000000    -0.552244   
O97      O      0.460310000000     0.282210000000     0.509810000000    -0.552432   
O98      O      0.049880000000     0.282870000000     0.001970000000    -0.552706   
O99      O      0.501180000000     0.282550000000     0.961060000000    -0.548802   
O100     O      0.009040000000     0.282470000000     0.550650000000    -0.548688   
O101     O      0.300460000000     0.260790000000     0.531970000000    -0.556318   
O102     O      0.210810000000     0.254240000000     0.533170000000    -0.548556   
O103     O      0.258820000000     0.212740000000     0.532600000000    -0.552869   
O104     O      0.252420000000     0.302300000000     0.532620000000    -0.550294   
O105     O      0.260630000000     0.302260000000     0.980390000000    -0.545016   
O106     O      0.249200000000     0.212880000000     0.980610000000    -0.539222   
O107     O      0.210300000000     0.263120000000     0.981050000000    -0.542452   
O108     O      0.299550000000     0.251920000000     0.979870000000    -0.541587   
O109     O      0.348340000000     0.213240000000     0.967550000000    -0.289028   
O110     O      0.098870000000     0.219610000000     0.549660000000    -0.290549   
O111     O      0.214060000000     0.351140000000     0.543630000000    -0.289039   
O112     O      0.211160000000     0.101080000000     0.466880000000    -0.291399   
O113     O      0.216540000000     0.466310000000     0.911840000000    -0.290039   
O114     O      0.211620000000     0.968050000000     0.662820000000    -0.286653   
O115     O      0.048850000000     0.218760000000     0.912570000000    -0.289972   
O116     O      0.043770000000     0.298170000000     0.662570000000    -0.284426   
O117     O      0.163020000000     0.046730000000     0.712730000000    -0.287189   
O118     O      0.349140000000     0.040170000000     0.711060000000    -0.295199   
O119     O      0.472190000000     0.349000000000     0.708550000000    -0.284462   
O120     O      0.463630000000     0.099580000000     0.797900000000    -0.2916     
O121     O      0.501580000000     0.549510000000     0.283340000000    -0.546046   
O122     O      0.010160000000     0.960030000000     0.279570000000    -0.550598   
O123     O      0.050650000000     0.507810000000     0.282260000000    -0.551105   
O124     O      0.460990000000     0.000130000000     0.280620000000    -0.549879   
O125     O      0.461590000000     0.508120000000     0.228350000000    -0.551726   
O126     O      0.051470000000     0.007880000000     0.229320000000    -0.55176    
O127     O      0.505770000000     0.962280000000     0.226900000000    -0.543307   
O128     O      0.007410000000     0.552090000000     0.230830000000    -0.559393   
O129     O      0.479930000000     0.711720000000     0.261560000000    -0.548024   
O130     O      0.481190000000     0.801020000000     0.250050000000    -0.546038   
O131     O      0.480440000000     0.750870000000     0.211180000000    -0.549008   
O132     O      0.480720000000     0.761940000000     0.300520000000    -0.550325   
O133     O      0.032730000000     0.752410000000     0.300570000000    -0.549967   
O134     O      0.032670000000     0.759110000000     0.211020000000    -0.546198   
O135     O      0.033320000000     0.800560000000     0.258930000000    -0.549254   
O136     O      0.032030000000     0.710880000000     0.252580000000    -0.55054    
O137     O      0.299630000000     0.978170000000     0.256960000000    -0.546483   
O138     O      0.209760000000     0.982550000000     0.258030000000    -0.551382   
O139     O      0.253320000000     0.978720000000     0.211830000000    -0.534578   
O140     O      0.254290000000     0.981960000000     0.301590000000    -0.55151    
O141     O      0.258120000000     0.534730000000     0.299570000000    -0.550031   
O142     O      0.258130000000     0.531420000000     0.209670000000    -0.553763   
O143     O      0.212490000000     0.535280000000     0.253810000000    -0.54134    
O144     O      0.302240000000     0.530950000000     0.253700000000    -0.555958   
O145     O      0.227990000000     0.506590000000     0.050970000000    -0.55206    
O146     O      0.227470000000     0.004820000000     0.461090000000    -0.5491     
O147     O      0.229420000000     0.961700000000     0.007630000000    -0.548572   
O148     O      0.225960000000     0.551370000000     0.504450000000    -0.550022   
O149     O      0.278620000000     0.553500000000     0.009100000000    -0.55778    
O150     O      0.282000000000     0.963800000000     0.502040000000    -0.542511   
O151     O      0.279800000000     0.512580000000     0.460690000000    -0.554044   
O152     O      0.280950000000     0.006350000000     0.050370000000    -0.551775   
O153     O      0.500610000000     0.730260000000     0.050570000000    -0.547524   
O154     O      0.010320000000     0.730470000000     0.461200000000    -0.549139   
O155     O      0.050140000000     0.730730000000     0.010770000000    -0.544489   
O156     O      0.460730000000     0.730060000000     0.501030000000    -0.550943   
O157     O      0.460310000000     0.782200000000     0.009810000000    -0.552643   
O158     O      0.049880000000     0.782870000000     0.501980000000    -0.551333   
O159     O      0.501180000000     0.782550000000     0.461060000000    -0.554182   
O160     O      0.009040000000     0.782470000000     0.050650000000    -0.547434   
O161     O      0.300460000000     0.760790000000     0.031970000000    -0.553987   
O162     O      0.210810000000     0.754240000000     0.033170000000    -0.546218   
O163     O      0.258820000000     0.712740000000     0.032600000000    -0.55057    
O164     O      0.252420000000     0.802300000000     0.032620000000    -0.54789    
O165     O      0.260630000000     0.802260000000     0.480390000000    -0.550747   
O166     O      0.249200000000     0.712880000000     0.480610000000    -0.544947   
O167     O      0.210300000000     0.763120000000     0.481050000000    -0.548207   
O168     O      0.299550000000     0.751920000000     0.479870000000    -0.547267   
O169     O      0.348340000000     0.713240000000     0.467550000000    -0.29005    
O170     O      0.098870000000     0.719610000000     0.049660000000    -0.290405   
O171     O      0.214060000000     0.851140000000     0.043630000000    -0.289492   
O172     O      0.211160000000     0.601080000000     0.966880000000    -0.290918   
O173     O      0.216540000000     0.966310000000     0.411840000000    -0.290711   
O174     O      0.211620000000     0.468050000000     0.162820000000    -0.286553   
O175     O      0.048850000000     0.718760000000     0.412570000000    -0.290691   
O176     O      0.043770000000     0.798170000000     0.162570000000    -0.284293   
O177     O      0.163020000000     0.546730000000     0.212730000000    -0.287449   
O178     O      0.349140000000     0.540170000000     0.211060000000    -0.294895   
O179     O      0.472190000000     0.849000000000     0.208550000000    -0.28429    
O180     O      0.463630000000     0.599580000000     0.297910000000    -0.29162    
O181     O      0.501580000000     0.549510000000     0.783340000000    -0.545989   
O182     O      0.010160000000     0.960030000000     0.779570000000    -0.550543   
O183     O      0.050650000000     0.507810000000     0.782250000000    -0.551157   
O184     O      0.460990000000     0.000130000000     0.780620000000    -0.549799   
O185     O      0.461590000000     0.508120000000     0.728350000000    -0.551682   
O186     O      0.051470000000     0.007880000000     0.729310000000    -0.551603   
O187     O      0.505770000000     0.962280000000     0.726900000000    -0.543268   
O188     O      0.007410000000     0.552090000000     0.730830000000    -0.559358   
O189     O      0.479930000000     0.711720000000     0.761560000000    -0.547952   
O190     O      0.481190000000     0.801020000000     0.750050000000    -0.545952   
O191     O      0.480440000000     0.750870000000     0.711170000000    -0.548897   
O192     O      0.480720000000     0.761940000000     0.800520000000    -0.550203   
O193     O      0.032730000000     0.752410000000     0.800570000000    -0.549755   
O194     O      0.032670000000     0.759110000000     0.711020000000    -0.546414   
O195     O      0.033320000000     0.800560000000     0.758940000000    -0.549164   
O196     O      0.032030000000     0.710880000000     0.752580000000    -0.550533   
O197     O      0.299630000000     0.978170000000     0.756960000000    -0.546483   
O198     O      0.209760000000     0.982550000000     0.758030000000    -0.551402   
O199     O      0.253320000000     0.978720000000     0.711830000000    -0.534797   
O200     O      0.254290000000     0.981960000000     0.801580000000    -0.551384   
O201     O      0.258120000000     0.534730000000     0.799570000000    -0.54987    
O202     O      0.258130000000     0.531420000000     0.709670000000    -0.553773   
O203     O      0.212490000000     0.535280000000     0.753810000000    -0.541297   
O204     O      0.302240000000     0.530950000000     0.753700000000    -0.555922   
O205     O      0.227990000000     0.506590000000     0.550970000000    -0.553201   
O206     O      0.227470000000     0.004820000000     0.961090000000    -0.543713   
O207     O      0.229420000000     0.961700000000     0.507630000000    -0.548341   
O208     O      0.225960000000     0.551370000000     0.004450000000    -0.551278   
O209     O      0.278620000000     0.553500000000     0.509100000000    -0.557531   
O210     O      0.282000000000     0.963800000000     0.002030000000    -0.54365    
O211     O      0.279800000000     0.512580000000     0.960690000000    -0.548549   
O212     O      0.280950000000     0.006350000000     0.550370000000    -0.552897   
O213     O      0.500610000000     0.730260000000     0.550570000000    -0.548654   
O214     O      0.010320000000     0.730470000000     0.961200000000    -0.543742   
O215     O      0.050140000000     0.730730000000     0.510770000000    -0.544348   
O216     O      0.460730000000     0.730060000000     0.001030000000    -0.552238   
O217     O      0.460310000000     0.782200000000     0.509810000000    -0.552485   
O218     O      0.049880000000     0.782870000000     0.001970000000    -0.552513   
O219     O      0.501180000000     0.782550000000     0.961060000000    -0.548693   
O220     O      0.009040000000     0.782470000000     0.550650000000    -0.548559   
O221     O      0.300460000000     0.760790000000     0.531970000000    -0.556273   
O222     O      0.210810000000     0.754240000000     0.533170000000    -0.548528   
O223     O      0.258820000000     0.712740000000     0.532600000000    -0.552858   
O224     O      0.252420000000     0.802300000000     0.532620000000    -0.550228   
O225     O      0.260630000000     0.802260000000     0.980390000000    -0.544964   
O226     O      0.249200000000     0.712880000000     0.980610000000    -0.539217   
O227     O      0.210300000000     0.763120000000     0.981050000000    -0.542433   
O228     O      0.299550000000     0.751920000000     0.979870000000    -0.54157    
O229     O      0.348340000000     0.713240000000     0.967550000000    -0.288963   
O230     O      0.098870000000     0.719610000000     0.549660000000    -0.290497   
O231     O      0.214060000000     0.851140000000     0.543630000000    -0.288843   
O232     O      0.211160000000     0.601080000000     0.466880000000    -0.291185   
O233     O      0.216540000000     0.966310000000     0.911840000000    -0.289881   
O234     O      0.211620000000     0.468050000000     0.662820000000    -0.286487   
O235     O      0.048850000000     0.718760000000     0.912570000000    -0.289915   
O236     O      0.043770000000     0.798170000000     0.662570000000    -0.284211   
O237     O      0.163020000000     0.546730000000     0.712730000000    -0.287391   
O238     O      0.349140000000     0.540170000000     0.711060000000    -0.294833   
O239     O      0.472190000000     0.849000000000     0.708550000000    -0.284218   
O240     O      0.463630000000     0.599580000000     0.797900000000    -0.291429   
O241     O      0.001570000000     0.049510000000     0.283340000000    -0.546209   
O242     O      0.510160000000     0.460030000000     0.279570000000    -0.555725   
O243     O      0.550650000000     0.007810000000     0.282260000000    -0.553226   
O244     O      0.960990000000     0.500130000000     0.280620000000    -0.54329    
O245     O      0.961590000000     0.008120000000     0.228350000000    -0.546465   
O246     O      0.551470000000     0.507880000000     0.229320000000    -0.552486   
O247     O      0.005770000000     0.462280000000     0.226900000000    -0.549919   
O248     O      0.507410000000     0.052090000000     0.230830000000    -0.557945   
O249     O      0.979930000000     0.211720000000     0.261560000000    -0.542333   
O250     O      0.981190000000     0.301020000000     0.250050000000    -0.540387   
O251     O      0.980440000000     0.250880000000     0.211180000000    -0.543378   
O252     O      0.980720000000     0.261940000000     0.300520000000    -0.54464    
O253     O      0.532730000000     0.252410000000     0.300570000000    -0.552294   
O254     O      0.532670000000     0.259110000000     0.211020000000    -0.548545   
O255     O      0.533320000000     0.300560000000     0.258930000000    -0.551613   
O256     O      0.532030000000     0.210880000000     0.252580000000    -0.552824   
O257     O      0.799630000000     0.478170000000     0.256960000000    -0.552228   
O258     O      0.709760000000     0.482550000000     0.258030000000    -0.556949   
O259     O      0.753320000000     0.478720000000     0.211830000000    -0.54035    
O260     O      0.754290000000     0.481960000000     0.301590000000    -0.557043   
O261     O      0.758120000000     0.034730000000     0.299570000000    -0.547843   
O262     O      0.758130000000     0.031420000000     0.209670000000    -0.551366   
O263     O      0.712490000000     0.035280000000     0.253810000000    -0.539151   
O264     O      0.802240000000     0.030950000000     0.253700000000    -0.553536   
O265     O      0.727990000000     0.006590000000     0.050970000000    -0.552946   
O266     O      0.727470000000     0.504820000000     0.461090000000    -0.547765   
O267     O      0.729420000000     0.461700000000     0.007630000000    -0.553812   
O268     O      0.725960000000     0.051370000000     0.504450000000    -0.548771   
O269     O      0.778630000000     0.053500000000     0.009100000000    -0.556278   
O270     O      0.782000000000     0.463800000000     0.502040000000    -0.547808   
O271     O      0.779800000000     0.012580000000     0.460690000000    -0.554143   
O272     O      0.780950000000     0.506350000000     0.050370000000    -0.551271   
O273     O      0.000610000000     0.230260000000     0.050570000000    -0.548858   
O274     O      0.510320000000     0.230470000000     0.461200000000    -0.549086   
O275     O      0.550140000000     0.230740000000     0.010770000000    -0.545899   
O276     O      0.960730000000     0.230060000000     0.501030000000    -0.545509   
O277     O      0.960310000000     0.282210000000     0.009810000000    -0.547148   
O278     O      0.549880000000     0.282870000000     0.501980000000    -0.552648   
O279     O      0.001180000000     0.282550000000     0.461060000000    -0.555537   
O280     O      0.509040000000     0.282470000000     0.050650000000    -0.54739    
O281     O      0.800460000000     0.260790000000     0.031970000000    -0.553932   
O282     O      0.710810000000     0.254240000000     0.033170000000    -0.546181   
O283     O      0.758820000000     0.212740000000     0.032600000000    -0.550517   
O284     O      0.752420000000     0.302300000000     0.032620000000    -0.547925   
O285     O      0.760620000000     0.302260000000     0.480390000000    -0.550945   
O286     O      0.749210000000     0.212880000000     0.480610000000    -0.545074   
O287     O      0.710310000000     0.263120000000     0.481050000000    -0.548264   
O288     O      0.799540000000     0.251920000000     0.479870000000    -0.547597   
O289     O      0.848340000000     0.213240000000     0.467550000000    -0.289873   
O290     O      0.598870000000     0.219610000000     0.049660000000    -0.290286   
O291     O      0.714060000000     0.351140000000     0.043630000000    -0.289619   
O292     O      0.711160000000     0.101080000000     0.966880000000    -0.291071   
O293     O      0.716540000000     0.466310000000     0.411840000000    -0.290829   
O294     O      0.711620000000     0.968050000000     0.162820000000    -0.286656   
O295     O      0.548850000000     0.218760000000     0.412570000000    -0.290848   
O296     O      0.543770000000     0.298170000000     0.162570000000    -0.283778   
O297     O      0.663010000000     0.046730000000     0.212730000000    -0.28721    
O298     O      0.849140000000     0.040170000000     0.211060000000    -0.295038   
O299     O      0.972190000000     0.349000000000     0.208550000000    -0.283295   
O300     O      0.963630000000     0.099580000000     0.297910000000    -0.291537   
O301     O      0.001570000000     0.049510000000     0.783340000000    -0.546151   
O302     O      0.510160000000     0.460030000000     0.779570000000    -0.555655   
O303     O      0.550650000000     0.007810000000     0.782250000000    -0.553273   
O304     O      0.960990000000     0.500130000000     0.780620000000    -0.543229   
O305     O      0.961590000000     0.008120000000     0.728350000000    -0.546431   
O306     O      0.551470000000     0.507880000000     0.729310000000    -0.552326   
O307     O      0.005770000000     0.462280000000     0.726900000000    -0.549867   
O308     O      0.507410000000     0.052090000000     0.730830000000    -0.557913   
O309     O      0.979930000000     0.211720000000     0.761560000000    -0.542276   
O310     O      0.981190000000     0.301020000000     0.750050000000    -0.540316   
O311     O      0.980440000000     0.250880000000     0.711170000000    -0.543274   
O312     O      0.980720000000     0.261940000000     0.800520000000    -0.544537   
O313     O      0.532730000000     0.252410000000     0.800570000000    -0.552075   
O314     O      0.532670000000     0.259110000000     0.711020000000    -0.548759   
O315     O      0.533320000000     0.300560000000     0.758940000000    -0.551516   
O316     O      0.532030000000     0.210880000000     0.752580000000    -0.552811   
O317     O      0.799630000000     0.478170000000     0.756960000000    -0.552214   
O318     O      0.709760000000     0.482550000000     0.758030000000    -0.556955   
O319     O      0.753320000000     0.478720000000     0.711830000000    -0.540558   
O320     O      0.754290000000     0.481960000000     0.801580000000    -0.556896   
O321     O      0.758120000000     0.034730000000     0.799570000000    -0.54769    
O322     O      0.758130000000     0.031420000000     0.709670000000    -0.551382   
O323     O      0.712490000000     0.035280000000     0.753810000000    -0.539113   
O324     O      0.802240000000     0.030950000000     0.753700000000    -0.553506   
O325     O      0.727990000000     0.006590000000     0.550970000000    -0.554084   
O326     O      0.727470000000     0.504820000000     0.961090000000    -0.542394   
O327     O      0.729420000000     0.461700000000     0.507630000000    -0.553579   
O328     O      0.725960000000     0.051370000000     0.004450000000    -0.550027   
O329     O      0.778630000000     0.053500000000     0.509100000000    -0.556028   
O330     O      0.782000000000     0.463800000000     0.002030000000    -0.548949   
O331     O      0.779800000000     0.012580000000     0.960690000000    -0.548664   
O332     O      0.780950000000     0.506350000000     0.550370000000    -0.552391   
O333     O      0.000610000000     0.230260000000     0.550570000000    -0.549989   
O334     O      0.510320000000     0.230470000000     0.961200000000    -0.543677   
O335     O      0.550140000000     0.230740000000     0.510770000000    -0.545761   
O336     O      0.960730000000     0.230060000000     0.001030000000    -0.546801   
O337     O      0.960310000000     0.282210000000     0.509810000000    -0.54699    
O338     O      0.549880000000     0.282870000000     0.001970000000    -0.55383    
O339     O      0.001180000000     0.282550000000     0.961060000000    -0.550027   
O340     O      0.509040000000     0.282470000000     0.550650000000    -0.548519   
O341     O      0.800460000000     0.260790000000     0.531970000000    -0.556216   
O342     O      0.710810000000     0.254240000000     0.533170000000    -0.548491   
O343     O      0.758820000000     0.212740000000     0.532600000000    -0.552804   
O344     O      0.752420000000     0.302300000000     0.532620000000    -0.550263   
O345     O      0.760620000000     0.302260000000     0.980390000000    -0.545157   
O346     O      0.749210000000     0.212880000000     0.980610000000    -0.539346   
O347     O      0.710310000000     0.263120000000     0.981050000000    -0.542486   
O348     O      0.799540000000     0.251920000000     0.979870000000    -0.541908   
O349     O      0.848340000000     0.213240000000     0.967550000000    -0.288789   
O350     O      0.598870000000     0.219610000000     0.549660000000    -0.290378   
O351     O      0.714060000000     0.351140000000     0.543630000000    -0.288968   
O352     O      0.711160000000     0.101080000000     0.466880000000    -0.291339   
O353     O      0.716540000000     0.466310000000     0.911840000000    -0.289996   
O354     O      0.711620000000     0.968050000000     0.662820000000    -0.286589   
O355     O      0.548850000000     0.218760000000     0.912570000000    -0.290071   
O356     O      0.543770000000     0.298170000000     0.662570000000    -0.283696   
O357     O      0.663010000000     0.046730000000     0.712730000000    -0.287153   
O358     O      0.849140000000     0.040170000000     0.711060000000    -0.294977   
O359     O      0.972190000000     0.349000000000     0.708550000000    -0.283224   
O360     O      0.963630000000     0.099580000000     0.797900000000    -0.291347   
O361     O      0.001570000000     0.549510000000     0.283340000000    -0.547286   
O362     O      0.510160000000     0.960030000000     0.279570000000    -0.550394   
O363     O      0.550650000000     0.507810000000     0.282260000000    -0.552216   
O364     O      0.960990000000     0.000130000000     0.280620000000    -0.544455   
O365     O      0.961590000000     0.508120000000     0.228350000000    -0.546289   
O366     O      0.551470000000     0.007880000000     0.229320000000    -0.552889   
O367     O      0.005770000000     0.962280000000     0.226900000000    -0.544443   
O368     O      0.507410000000     0.552090000000     0.230830000000    -0.559141   
O369     O      0.979930000000     0.711720000000     0.261560000000    -0.542313   
O370     O      0.981190000000     0.801020000000     0.250050000000    -0.540352   
O371     O      0.980440000000     0.750870000000     0.211180000000    -0.543306   
O372     O      0.980720000000     0.761940000000     0.300520000000    -0.544602   
O373     O      0.532730000000     0.752410000000     0.300570000000    -0.552257   
O374     O      0.532670000000     0.759110000000     0.211020000000    -0.548509   
O375     O      0.533320000000     0.800560000000     0.258930000000    -0.551548   
O376     O      0.532030000000     0.710880000000     0.252580000000    -0.552798   
O377     O      0.799630000000     0.978170000000     0.256960000000    -0.54642    
O378     O      0.709760000000     0.982550000000     0.258030000000    -0.551379   
O379     O      0.753320000000     0.978720000000     0.211830000000    -0.534553   
O380     O      0.754290000000     0.981960000000     0.301590000000    -0.551483   
O381     O      0.758120000000     0.534730000000     0.299570000000    -0.549991   
O382     O      0.758130000000     0.531420000000     0.209670000000    -0.553746   
O383     O      0.712490000000     0.535280000000     0.253810000000    -0.541335   
O384     O      0.802240000000     0.530950000000     0.253700000000    -0.555903   
O385     O      0.727990000000     0.506590000000     0.050970000000    -0.551982   
O386     O      0.727470000000     0.004820000000     0.461090000000    -0.549031   
O387     O      0.729420000000     0.961700000000     0.007630000000    -0.548506   
O388     O      0.725960000000     0.551370000000     0.504450000000    -0.549871   
O389     O      0.778630000000     0.553500000000     0.009100000000    -0.557455   
O390     O      0.782000000000     0.963800000000     0.502040000000    -0.542368   
O391     O      0.779800000000     0.512580000000     0.460690000000    -0.553901   
O392     O      0.780950000000     0.006350000000     0.050370000000    -0.551634   
O393     O      0.000610000000     0.730260000000     0.050570000000    -0.548787   
O394     O      0.510320000000     0.730470000000     0.461200000000    -0.549016   
O395     O      0.550140000000     0.730730000000     0.010770000000    -0.545643   
O396     O      0.960730000000     0.730060000000     0.501030000000    -0.545516   
O397     O      0.960310000000     0.782200000000     0.009810000000    -0.547216   
O398     O      0.549880000000     0.782870000000     0.501980000000    -0.552456   
O399     O      0.001180000000     0.782550000000     0.461060000000    -0.555408   
O400     O      0.509040000000     0.782470000000     0.050650000000    -0.547263   
O401     O      0.800460000000     0.760790000000     0.031970000000    -0.553892   
O402     O      0.710810000000     0.754240000000     0.033170000000    -0.546159   
O403     O      0.758820000000     0.712740000000     0.032600000000    -0.55051    
O404     O      0.752420000000     0.802300000000     0.032620000000    -0.547866   
O405     O      0.760620000000     0.802260000000     0.480390000000    -0.550874   
O406     O      0.749210000000     0.712880000000     0.480610000000    -0.545059   
O407     O      0.710310000000     0.763120000000     0.481050000000    -0.54823    
O408     O      0.799540000000     0.751920000000     0.479870000000    -0.547567   
O409     O      0.848340000000     0.713240000000     0.467550000000    -0.289806   
O410     O      0.598870000000     0.719610000000     0.049660000000    -0.290234   
O411     O      0.714060000000     0.851140000000     0.043630000000    -0.289422   
O412     O      0.711160000000     0.601080000000     0.966880000000    -0.290858   
O413     O      0.716540000000     0.966310000000     0.411840000000    -0.290668   
O414     O      0.711620000000     0.468050000000     0.162820000000    -0.28649    
O415     O      0.548850000000     0.718760000000     0.412570000000    -0.290789   
O416     O      0.543770000000     0.798170000000     0.162570000000    -0.283564   
O417     O      0.663010000000     0.546730000000     0.212730000000    -0.287413   
O418     O      0.849140000000     0.540170000000     0.211060000000    -0.294674   
O419     O      0.972190000000     0.849000000000     0.208550000000    -0.283056   
O420     O      0.963630000000     0.599580000000     0.297910000000    -0.291366   
O421     O      0.001570000000     0.549510000000     0.783340000000    -0.547225   
O422     O      0.510160000000     0.960030000000     0.779570000000    -0.55034    
O423     O      0.550650000000     0.507810000000     0.782250000000    -0.552266   
O424     O      0.960990000000     0.000130000000     0.780620000000    -0.54439    
O425     O      0.961590000000     0.508120000000     0.728350000000    -0.546256   
O426     O      0.551470000000     0.007880000000     0.729310000000    -0.552729   
O427     O      0.005770000000     0.962280000000     0.726900000000    -0.544402   
O428     O      0.507410000000     0.552090000000     0.730830000000    -0.559106   
O429     O      0.979930000000     0.711720000000     0.761560000000    -0.542256   
O430     O      0.981190000000     0.801020000000     0.750050000000    -0.540281   
O431     O      0.980440000000     0.750870000000     0.711170000000    -0.543202   
O432     O      0.980720000000     0.761940000000     0.800520000000    -0.5445     
O433     O      0.532730000000     0.752410000000     0.800570000000    -0.552039   
O434     O      0.532670000000     0.759110000000     0.711020000000    -0.548722   
O435     O      0.533320000000     0.800560000000     0.758940000000    -0.551452   
O436     O      0.532030000000     0.710880000000     0.752580000000    -0.552785   
O437     O      0.799630000000     0.978170000000     0.756960000000    -0.54642    
O438     O      0.709760000000     0.982550000000     0.758030000000    -0.5514     
O439     O      0.753320000000     0.978720000000     0.711830000000    -0.534772   
O440     O      0.754290000000     0.981960000000     0.801580000000    -0.551357   
O441     O      0.758120000000     0.534730000000     0.799570000000    -0.549831   
O442     O      0.758130000000     0.531420000000     0.709670000000    -0.553756   
O443     O      0.712490000000     0.535280000000     0.753810000000    -0.541292   
O444     O      0.802240000000     0.530950000000     0.753700000000    -0.555867   
O445     O      0.727990000000     0.506590000000     0.550970000000    -0.553122   
O446     O      0.727470000000     0.004820000000     0.961090000000    -0.543655   
O447     O      0.729420000000     0.961700000000     0.507630000000    -0.548275   
O448     O      0.725960000000     0.551370000000     0.004450000000    -0.551126   
O449     O      0.778630000000     0.553500000000     0.509100000000    -0.557206   
O450     O      0.782000000000     0.963800000000     0.002030000000    -0.543503   
O451     O      0.779800000000     0.512580000000     0.960690000000    -0.548423   
O452     O      0.780950000000     0.006350000000     0.550370000000    -0.552754   
O453     O      0.000610000000     0.730260000000     0.550570000000    -0.549915   
O454     O      0.510320000000     0.730470000000     0.961200000000    -0.543619   
O455     O      0.550140000000     0.730730000000     0.510770000000    -0.545504   
O456     O      0.960730000000     0.730060000000     0.001030000000    -0.546806   
O457     O      0.960310000000     0.782200000000     0.509810000000    -0.547058   
O458     O      0.549880000000     0.782870000000     0.001970000000    -0.553635   
O459     O      0.001180000000     0.782550000000     0.961060000000    -0.549915   
O460     O      0.509040000000     0.782470000000     0.550650000000    -0.548389   
O461     O      0.800460000000     0.760790000000     0.531970000000    -0.55617    
O462     O      0.710810000000     0.754240000000     0.533170000000    -0.548463   
O463     O      0.758820000000     0.712740000000     0.532600000000    -0.552793   
O464     O      0.752420000000     0.802300000000     0.532620000000    -0.550197   
O465     O      0.760620000000     0.802260000000     0.980390000000    -0.545106   
O466     O      0.749210000000     0.712880000000     0.980610000000    -0.539341   
O467     O      0.710310000000     0.763120000000     0.981050000000    -0.542467   
O468     O      0.799540000000     0.751920000000     0.979870000000    -0.541892   
O469     O      0.848340000000     0.713240000000     0.967550000000    -0.288724   
O470     O      0.598870000000     0.719610000000     0.549660000000    -0.290327   
O471     O      0.714060000000     0.851140000000     0.543630000000    -0.288773   
O472     O      0.711160000000     0.601080000000     0.466880000000    -0.291125   
O473     O      0.716540000000     0.966310000000     0.911840000000    -0.289839   
O474     O      0.711620000000     0.468050000000     0.662820000000    -0.286424   
O475     O      0.548850000000     0.718760000000     0.912570000000    -0.290013   
O476     O      0.543770000000     0.798170000000     0.662570000000    -0.283483   
O477     O      0.663010000000     0.546730000000     0.712730000000    -0.287355   
O478     O      0.849140000000     0.540170000000     0.711060000000    -0.294612   
O479     O      0.972190000000     0.849000000000     0.708550000000    -0.282986   
O480     O      0.963630000000     0.599580000000     0.797900000000    -0.291176   
V1       V      0.005770000000     0.004410000000     0.283610000000     1.37763    
V2       V      0.006560000000     0.507530000000     0.226680000000     1.39536    
V3       V      0.478250000000     0.256410000000     0.255850000000     1.38463    
V4       V      0.034980000000     0.255690000000     0.255790000000     1.39293    
V5       V      0.254320000000     0.478220000000     0.257050000000     1.40588    
V6       V      0.257730000000     0.035220000000     0.254280000000     1.39562    
V7       V      0.225550000000     0.506190000000     0.006030000000     1.39755    
V8       V      0.282520000000     0.509010000000     0.505490000000     1.3966     
V9       V      0.005450000000     0.228080000000     0.005870000000     1.37794    
V10      V      0.005070000000     0.284830000000     0.505870000000     1.38929    
V11      V      0.255670000000     0.257530000000     0.034890000000     1.39329    
V12      V      0.254900000000     0.257550000000     0.478170000000     1.38685    
V13      V      0.005770000000     0.004410000000     0.783620000000     1.3783     
V14      V      0.006560000000     0.507530000000     0.726680000000     1.39568    
V15      V      0.478250000000     0.256410000000     0.755850000000     1.38438    
V16      V      0.034980000000     0.255690000000     0.755780000000     1.39302    
V17      V      0.254320000000     0.478220000000     0.757040000000     1.40621    
V18      V      0.257730000000     0.035220000000     0.754280000000     1.39559    
V19      V      0.225550000000     0.506190000000     0.506030000000     1.4049     
V20      V      0.282520000000     0.509010000000     0.005490000000     1.38929    
V21      V      0.005450000000     0.228080000000     0.505870000000     1.38519    
V22      V      0.005070000000     0.284830000000     0.005870000000     1.38206    
V23      V      0.255670000000     0.257530000000     0.534890000000     1.4025     
V24      V      0.254900000000     0.257550000000     0.978170000000     1.39149    
V25      V      0.005770000000     0.504410000000     0.283610000000     1.385      
V26      V      0.006560000000     0.007530000000     0.226680000000     1.38847    
V27      V      0.478250000000     0.756410000000     0.255850000000     1.38462    
V28      V      0.034980000000     0.755690000000     0.255790000000     1.393      
V29      V      0.254320000000     0.978220000000     0.257050000000     1.41025    
V30      V      0.257730000000     0.535220000000     0.254280000000     1.40459    
V31      V      0.225550000000     0.006190000000     0.006030000000     1.39008    
V32      V      0.282520000000     0.009010000000     0.505490000000     1.38977    
V33      V      0.005450000000     0.728080000000     0.005870000000     1.37801    
V34      V      0.005070000000     0.784830000000     0.505870000000     1.38987    
V35      V      0.255670000000     0.757530000000     0.034890000000     1.39336    
V36      V      0.254900000000     0.757550000000     0.478170000000     1.38689    
V37      V      0.005770000000     0.504410000000     0.783620000000     1.38565    
V38      V      0.006560000000     0.007530000000     0.726680000000     1.38881    
V39      V      0.478250000000     0.756410000000     0.755850000000     1.38437    
V40      V      0.034980000000     0.755690000000     0.755780000000     1.39309    
V41      V      0.254320000000     0.978220000000     0.757040000000     1.41057    
V42      V      0.257730000000     0.535220000000     0.754280000000     1.40455    
V43      V      0.225550000000     0.006190000000     0.506030000000     1.39741    
V44      V      0.282520000000     0.009010000000     0.005490000000     1.38248    
V45      V      0.005450000000     0.728080000000     0.505870000000     1.38525    
V46      V      0.005070000000     0.784830000000     0.005870000000     1.38265    
V47      V      0.255670000000     0.757530000000     0.534890000000     1.40255    
V48      V      0.254900000000     0.757550000000     0.978170000000     1.39152    
V49      V      0.505770000000     0.004410000000     0.283610000000     1.38492    
V50      V      0.506560000000     0.507530000000     0.226680000000     1.40253    
V51      V      0.978250000000     0.256410000000     0.255850000000     1.38924    
V52      V      0.534980000000     0.255690000000     0.255790000000     1.40207    
V53      V      0.754320000000     0.478220000000     0.257050000000     1.40592    
V54      V      0.757730000000     0.035220000000     0.254280000000     1.39567    
V55      V      0.725550000000     0.506190000000     0.006030000000     1.39761    
V56      V      0.782520000000     0.509010000000     0.505490000000     1.39707    
V57      V      0.505450000000     0.228080000000     0.005870000000     1.38504    
V58      V      0.505070000000     0.284830000000     0.505870000000     1.39648    
V59      V      0.755670000000     0.257530000000     0.034890000000     1.39319    
V60      V      0.754910000000     0.257550000000     0.478170000000     1.38763    
V61      V      0.505770000000     0.004410000000     0.783620000000     1.38557    
V62      V      0.506560000000     0.507530000000     0.726680000000     1.40285    
V63      V      0.978250000000     0.256410000000     0.755850000000     1.38898    
V64      V      0.534980000000     0.255690000000     0.755780000000     1.40214    
V65      V      0.754320000000     0.478220000000     0.757040000000     1.40625    
V66      V      0.757730000000     0.035220000000     0.754280000000     1.39565    
V67      V      0.725550000000     0.506190000000     0.506030000000     1.40494    
V68      V      0.782520000000     0.509010000000     0.005490000000     1.38978    
V69      V      0.505450000000     0.228080000000     0.505870000000     1.39231    
V70      V      0.505070000000     0.284830000000     0.005870000000     1.38924    
V71      V      0.755670000000     0.257530000000     0.534890000000     1.40238    
V72      V      0.754910000000     0.257550000000     0.978170000000     1.39225    
V73      V      0.505770000000     0.504410000000     0.283610000000     1.3923     
V74      V      0.506560000000     0.007530000000     0.226680000000     1.39563    
V75      V      0.978250000000     0.756410000000     0.255850000000     1.38922    
V76      V      0.534980000000     0.755690000000     0.255790000000     1.40212    
V77      V      0.754320000000     0.978220000000     0.257050000000     1.41028    
V78      V      0.757730000000     0.535220000000     0.254280000000     1.40463    
V79      V      0.725550000000     0.006190000000     0.006030000000     1.39014    
V80      V      0.782520000000     0.009010000000     0.505490000000     1.39026    
V81      V      0.505450000000     0.728080000000     0.005870000000     1.38511    
V82      V      0.505070000000     0.784830000000     0.505870000000     1.39703    
V83      V      0.755670000000     0.757530000000     0.034890000000     1.39326    
V84      V      0.754910000000     0.757550000000     0.478170000000     1.38767    
V85      V      0.505770000000     0.504410000000     0.783620000000     1.39294    
V86      V      0.506560000000     0.007530000000     0.726680000000     1.39595    
V87      V      0.978250000000     0.756410000000     0.755850000000     1.38896    
V88      V      0.534980000000     0.755690000000     0.755780000000     1.40218    
V89      V      0.754320000000     0.978220000000     0.757040000000     1.4106     
V90      V      0.757730000000     0.535220000000     0.754280000000     1.40458    
V91      V      0.725550000000     0.006190000000     0.506030000000     1.39746    
V92      V      0.782520000000     0.009010000000     0.005490000000     1.38299    
V93      V      0.505450000000     0.728080000000     0.505870000000     1.39236    
V94      V      0.505070000000     0.784830000000     0.005870000000     1.38981    
V95      V      0.755670000000     0.757530000000     0.534890000000     1.40243    
V96      V      0.754910000000     0.757550000000     0.978170000000     1.39228    


