data_structure

_audit_creation_method RASPA-1.0
_audit_creation_date 2023-5-23
_audit_author_name 'Poobodin Mano'

_cell_length_a    42.3274
_cell_length_b    42.3298
_cell_length_c    42.4504
_cell_angle_alpha 90
_cell_angle_beta  90
_cell_angle_gamma 90
_cell_volume      76058.8

_symmetry_cell_setting          triclinic
_symmetry_space_group_name_Hall 'P 1'
_symmetry_space_group_name_H-M  'P 1'
_symmetry_Int_Tables_number     1

_symmetry_equiv_pos_as_xyz 'x,y,z'

loop_
_atom_site_label
_atom_site_type_symbol
_atom_site_fract_x
_atom_site_fract_y
_atom_site_fract_z
_atom_site_charge
C1       C      0.388290000000     0.888910000000     0.070640000000     0.475763   
C2       C      0.388510000000     0.888950000000     0.451060000000     0.476658   
C3       C      0.388310000000     0.948920000000     0.510810000000     0.477215   
C4       C      0.388530000000     0.829160000000     0.510810000000     0.478636   
C5       C      0.388310000000     0.888970000000     0.320660000000     0.476671   
C6       C      0.388460000000     0.888840000000     0.201080000000     0.476422   
C7       C      0.388270000000     0.948890000000     0.260970000000     0.476956   
C8       C      0.388510000000     0.829130000000     0.261150000000     0.478396   
C9       C      0.387560000000     0.140710000000     0.452320000000     0.475946   
C10      C      0.389700000000     0.138630000000     0.071880000000     0.476361   
C11      C      0.388430000000     0.079720000000     0.011080000000     0.47552    
C12      C      0.388880000000     0.199450000000     0.013550000000     0.477469   
C13      C      0.389670000000     0.138950000000     0.202260000000     0.476551   
C14      C      0.387530000000     0.140360000000     0.321830000000     0.476026   
C15      C      0.388390000000     0.079690000000     0.262500000000     0.47684    
C16      C      0.388850000000     0.199440000000     0.261210000000     0.478294   
C17      C      0.887950000000     0.639500000000     0.068680000000     0.475915   
C18      C      0.889380000000     0.639320000000     0.449100000000     0.476496   
C19      C      0.948640000000     0.639590000000     0.510110000000     0.476872   
C20      C      0.828880000000     0.639160000000     0.507890000000     0.478349   
C21      C      0.888440000000     0.639530000000     0.318680000000     0.476286   
C22      C      0.889080000000     0.639340000000     0.199100000000     0.476634   
C23      C      0.948760000000     0.639600000000     0.259720000000     0.47687    
C24      C      0.828990000000     0.639240000000     0.258360000000     0.478357   
C25      C      0.139650000000     0.639510000000     0.456850000000     0.47624    
C26      C      0.139010000000     0.639330000000     0.076440000000     0.475772   
C27      C      0.079340000000     0.639590000000     0.015810000000     0.475742   
C28      C      0.199100000000     0.639210000000     0.017170000000     0.477298   
C29      C      0.140140000000     0.639470000000     0.206860000000     0.476178   
C30      C      0.138720000000     0.639300000000     0.326440000000     0.47646    
C31      C      0.079450000000     0.639580000000     0.265430000000     0.476443   
C32      C      0.199210000000     0.639120000000     0.267640000000     0.478331   
C33      C      0.638490000000     0.138980000000     0.073240000000     0.476061   
C34      C      0.640620000000     0.140380000000     0.453670000000     0.475677   
C35      C      0.639750000000     0.079720000000     0.513000000000     0.476916   
C36      C      0.639320000000     0.199470000000     0.514280000000     0.478281   
C37      C      0.640590000000     0.140750000000     0.323180000000     0.475969   
C38      C      0.638450000000     0.138670000000     0.203620000000     0.476695   
C39      C      0.639710000000     0.079750000000     0.264420000000     0.477024   
C40      C      0.639280000000     0.199480000000     0.261950000000     0.478483   
C41      C      0.639790000000     0.889000000000     0.454870000000     0.476416   
C42      C      0.639650000000     0.888870000000     0.074450000000     0.476028   
C43      C      0.639840000000     0.948920000000     0.014570000000     0.475784   
C44      C      0.639580000000     0.829160000000     0.014390000000     0.477138   
C45      C      0.639820000000     0.888940000000     0.204890000000     0.4762     
C46      C      0.639600000000     0.888980000000     0.324480000000     0.476575   
C47      C      0.639810000000     0.948960000000     0.264720000000     0.476701   
C48      C      0.639560000000     0.829200000000     0.264730000000     0.478554   
C49      C      0.388480000000     0.448910000000     0.516100000000     0.475856   
C50      C      0.389220000000     0.329240000000     0.516470000000     0.477621   
C51      C      0.448710000000     0.389290000000     0.016600000000     0.467476   
C52      C      0.329030000000     0.388720000000     0.015730000000     0.469099   
C53      C      0.388920000000     0.448900000000     0.266050000000     0.475972   
C54      C      0.388870000000     0.329290000000     0.262000000000     0.477317   
C55      C      0.448670000000     0.389050000000     0.261600000000     0.475653   
C56      C      0.329080000000     0.389180000000     0.266140000000     0.477294   
C57      C      0.388750000000     0.579700000000     0.015170000000     0.467542   
C58      C      0.388580000000     0.699350000000     0.012550000000     0.469312   
C59      C      0.448580000000     0.639790000000     0.512500000000     0.47592    
C60      C      0.328930000000     0.639390000000     0.515660000000     0.477482   
C61      C      0.389180000000     0.579700000000     0.267540000000     0.475808   
C62      C      0.388420000000     0.699350000000     0.264720000000     0.477425   
C63      C      0.448720000000     0.639990000000     0.265210000000     0.475964   
C64      C      0.329050000000     0.639150000000     0.267570000000     0.477443   
C65      C      0.579490000000     0.389070000000     0.513900000000     0.475893   
C66      C      0.699080000000     0.389220000000     0.509340000000     0.47735    
C67      C      0.639230000000     0.448930000000     0.009450000000     0.467367   
C68      C      0.639300000000     0.329320000000     0.013490000000     0.46879    
C69      C      0.579450000000     0.389310000000     0.258900000000     0.475936   
C70      C      0.699130000000     0.388760000000     0.259760000000     0.477242   
C71      C      0.639670000000     0.448950000000     0.259390000000     0.475967   
C72      C      0.638950000000     0.329270000000     0.259020000000     0.477602   
C73      C      0.638920000000     0.579730000000     0.507970000000     0.475853   
C74      C      0.639660000000     0.699380000000     0.510810000000     0.477378   
C75      C      0.579370000000     0.640010000000     0.010310000000     0.46744    
C76      C      0.699040000000     0.639190000000     0.007950000000     0.469123   
C77      C      0.639360000000     0.579730000000     0.260350000000     0.475922   
C78      C      0.639500000000     0.699380000000     0.262980000000     0.477606   
C79      C      0.579510000000     0.639810000000     0.263020000000     0.475744   
C80      C      0.699170000000     0.639430000000     0.259870000000     0.477494   
C81      C      0.139650000000     0.387430000000     0.075140000000     0.475752   
C82      C      0.139150000000     0.389540000000     0.455570000000     0.47679    
C83      C      0.079430000000     0.388350000000     0.515230000000     0.476746   
C84      C      0.199190000000     0.388580000000     0.515170000000     0.478546   
C85      C      0.138450000000     0.389670000000     0.325160000000     0.47642    
C86      C      0.140420000000     0.387570000000     0.205600000000     0.476094   
C87      C      0.079480000000     0.388390000000     0.264070000000     0.477045   
C88      C      0.199230000000     0.388980000000     0.266660000000     0.478095   
C89      C      0.889710000000     0.389690000000     0.450300000000     0.476438   
C90      C      0.887750000000     0.387590000000     0.069860000000     0.475511   
C91      C      0.948680000000     0.388400000000     0.011380000000     0.475682   
C92      C      0.828930000000     0.389010000000     0.008800000000     0.476911   
C93      C      0.888500000000     0.387450000000     0.200320000000     0.476289   
C94      C      0.889010000000     0.389560000000     0.319890000000     0.476709   
C95      C      0.948730000000     0.388360000000     0.260220000000     0.476743   
C96      C      0.828970000000     0.388610000000     0.260290000000     0.478279   
C97      C      0.888250000000     0.417790000000     0.368590000000     0.0304416  
C98      C      0.890710000000     0.362130000000     0.368710000000     0.0305307  
C99      C      0.890960000000     0.362160000000     0.401520000000     0.0303088  
C100     C      0.888520000000     0.417820000000     0.401550000000     0.0305747  
C101     C      0.889030000000     0.415020000000     0.118700000000     0.0303606  
C102     C      0.886400000000     0.359380000000     0.118580000000     0.0302365  
C103     C      0.886680000000     0.359330000000     0.151560000000     0.0302509  
C104     C      0.889310000000     0.414980000000     0.151520000000     0.0302831  
C105     C      0.030570000000     0.416170000000     0.263110000000     0.0307883  
C106     C      0.030630000000     0.360480000000     0.261780000000     0.0306009  
C107     C      0.997640000000     0.360480000000     0.260680000000     0.0306105  
C108     C      0.997610000000     0.416170000000     0.262010000000     0.0307284  
C109     C      0.139920000000     0.417760000000     0.406870000000     0.0305459  
C110     C      0.137450000000     0.362100000000     0.406750000000     0.0304255  
C111     C      0.137190000000     0.362140000000     0.373940000000     0.0303606  
C112     C      0.139650000000     0.417800000000     0.373900000000     0.0305562  
C113     C      0.141470000000     0.359310000000     0.123900000000     0.030253   
C114     C      0.138850000000     0.414960000000     0.123940000000     0.0302346  
C115     C      0.139130000000     0.415000000000     0.156760000000     0.030395   
C116     C      0.141750000000     0.359350000000     0.156880000000     0.0301736  
C117     C      0.997530000000     0.360480000000     0.513670000000     0.0306347  
C118     C      0.997600000000     0.416170000000     0.012340000000     0.0301541  
C119     C      0.030560000000     0.416170000000     0.013450000000     0.0300691  
C120     C      0.030510000000     0.360470000000     0.514770000000     0.0305731  
C121     C      0.780620000000     0.409350000000     0.241480000000     0.0322925  
C122     C      0.780430000000     0.368130000000     0.279040000000     0.0323252  
C123     C      0.747460000000     0.369350000000     0.280130000000     0.0318086  
C124     C      0.747680000000     0.408250000000     0.240180000000     0.0320957  
C125     C      0.639290000000     0.498030000000     0.231860000000     0.0306371  
C126     C      0.640120000000     0.497650000000     0.287400000000     0.0307025  
C127     C      0.639850000000     0.530610000000     0.287600000000     0.0306421  
C128     C      0.639340000000     0.531060000000     0.232040000000     0.0303348  
C129     C      0.780370000000     0.368440000000     0.989940000000     0.0380173  
C130     C      0.780580000000     0.410480000000     0.526570000000     0.0323587  
C131     C      0.747660000000     0.409560000000     0.527750000000     0.0321868  
C132     C      0.747370000000     0.369730000000     0.988730000000     0.0365983  
C133     C      0.637500000000     0.498200000000     0.036110000000     0.0293119  
C134     C      0.640560000000     0.497470000000     0.480640000000     0.0304518  
C135     C      0.640470000000     0.530570000000     0.480240000000     0.0303776  
C136     C      0.637370000000     0.531070000000     0.035710000000     0.0295489  
C137     C      0.498080000000     0.640010000000     0.292190000000     0.0305937  
C138     C      0.497150000000     0.640270000000     0.236640000000     0.0305085  
C139     C      0.530130000000     0.640050000000     0.236140000000     0.0305209  
C140     C      0.531090000000     0.640090000000     0.291690000000     0.0305276  
C141     C      0.497960000000     0.640040000000     0.039370000000     0.0295471  
C142     C      0.497000000000     0.640090000000     0.483830000000     0.0305602  
C143     C      0.530010000000     0.640010000000     0.483330000000     0.0305493  
C144     C      0.530940000000     0.640270000000     0.038880000000     0.0292975  
C145     C      0.280790000000     0.369690000000     0.286740000000     0.031628   
C146     C      0.280500000000     0.409520000000     0.247720000000     0.0322044  
C147     C      0.247580000000     0.410450000000     0.248900000000     0.0323234  
C148     C      0.247790000000     0.368400000000     0.285520000000     0.0322135  
C149     C      0.496940000000     0.387410000000     0.232450000000     0.0305673  
C150     C      0.498170000000     0.390970000000     0.287880000000     0.0303904  
C151     C      0.531060000000     0.391090000000     0.287170000000     0.0306039  
C152     C      0.530020000000     0.387470000000     0.231740000000     0.0304329  
C153     C      0.390640000000     0.498170000000     0.239390000000     0.0304131  
C154     C      0.387570000000     0.497430000000     0.294860000000     0.0304294  
C155     C      0.387650000000     0.530540000000     0.295260000000     0.0304139  
C156     C      0.390750000000     0.531040000000     0.239800000000     0.0307343  
C157     C      0.280480000000     0.408210000000     0.035300000000     0.0308084  
C158     C      0.280710000000     0.369310000000     0.495360000000     0.0318981  
C159     C      0.247740000000     0.368100000000     0.496430000000     0.0322202  
C160     C      0.247530000000     0.409310000000     0.034000000000     0.0314669  
C161     C      0.498140000000     0.387460000000     0.043760000000     0.0292681  
C162     C      0.497100000000     0.391090000000     0.488330000000     0.030597   
C163     C      0.529990000000     0.390980000000     0.487620000000     0.0303857  
C164     C      0.531220000000     0.387410000000     0.043050000000     0.0294175  
C165     C      0.388010000000     0.497620000000     0.988100000000     0.035677   
C166     C      0.388840000000     0.498000000000     0.543650000000     0.0304638  
C167     C      0.388780000000     0.531020000000     0.543460000000     0.0304376  
C168     C      0.388270000000     0.530580000000     0.987910000000     0.035713   
C169     C      0.618400000000     0.781010000000     0.246040000000     0.0322945  
C170     C      0.660380000000     0.780500000000     0.282750000000     0.0322095  
C171     C      0.659190000000     0.747520000000     0.283560000000     0.0317492  
C172     C      0.619480000000     0.748090000000     0.244430000000     0.0322367  
C173     C      0.660480000000     0.780240000000     0.531640000000     0.032152   
C174     C      0.618620000000     0.781230000000     0.994800000000     0.0381755  
C175     C      0.619820000000     0.748340000000     0.992630000000     0.0370339  
C176     C      0.659400000000     0.747250000000     0.531880000000     0.0318432  
C177     C      0.667590000000     0.888810000000     0.406080000000     0.0303592  
C178     C      0.611880000000     0.889090000000     0.406160000000     0.0306475  
C179     C      0.611780000000     0.888970000000     0.373270000000     0.0303286  
C180     C      0.667500000000     0.888910000000     0.373190000000     0.0305321  
C181     C      0.667550000000     0.888820000000     0.123190000000     0.0303428  
C182     C      0.611840000000     0.888800000000     0.123260000000     0.030357   
C183     C      0.611920000000     0.888930000000     0.156150000000     0.0304538  
C184     C      0.667630000000     0.888740000000     0.156090000000     0.030311   
C185     C      0.618140000000     0.248270000000     0.279000000000     0.0323115  
C186     C      0.659590000000     0.247530000000     0.241700000000     0.0323527  
C187     C      0.658220000000     0.280460000000     0.239580000000     0.0316626  
C188     C      0.619060000000     0.281220000000     0.279270000000     0.0323497  
C189     C      0.611930000000     0.030820000000     0.264850000000     0.0306671  
C190     C      0.667650000000     0.030880000000     0.264710000000     0.0306443  
C191     C      0.667670000000     0.997880000000     0.264670000000     0.0306715  
C192     C      0.611960000000     0.997840000000     0.264950000000     0.0307616  
C193     C      0.617970000000     0.247820000000     0.496290000000     0.0322412  
C194     C      0.660020000000     0.248040000000     0.032930000000     0.0312936  
C195     C      0.658810000000     0.281040000000     0.034040000000     0.03039    
C196     C      0.618980000000     0.280740000000     0.495020000000     0.0322128  
C197     C      0.613120000000     0.139740000000     0.372020000000     0.0302117  
C198     C      0.668780000000     0.142260000000     0.371930000000     0.030191   
C199     C      0.668780000000     0.142140000000     0.404920000000     0.0302807  
C200     C      0.613130000000     0.139610000000     0.404840000000     0.0302919  
C201     C      0.665940000000     0.137180000000     0.154840000000     0.0303682  
C202     C      0.610270000000     0.139630000000     0.154910000000     0.030641   
C203     C      0.610280000000     0.139750000000     0.121940000000     0.0304953  
C204     C      0.665950000000     0.137300000000     0.122030000000     0.0304155  
C205     C      0.667680000000     0.030830000000     0.512660000000     0.0306263  
C206     C      0.611980000000     0.030800000000     0.014170000000     0.0300452  
C207     C      0.612010000000     0.997820000000     0.014690000000     0.0301844  
C208     C      0.667700000000     0.997830000000     0.513150000000     0.0306048  
C209     C      0.247660000000     0.659860000000     0.286460000000     0.0322976  
C210     C      0.247650000000     0.617820000000     0.249820000000     0.0323262  
C211     C      0.280580000000     0.618860000000     0.248690000000     0.0322345  
C212     C      0.280640000000     0.658650000000     0.287750000000     0.0316217  
C213     C      0.247360000000     0.618040000000     0.498710000000     0.0322864  
C214     C      0.247730000000     0.659970000000     0.035470000000     0.0313857  
C215     C      0.280730000000     0.658830000000     0.036360000000     0.0303036  
C216     C      0.280280000000     0.619160000000     0.497180000000     0.0322588  
C217     C      0.139210000000     0.611600000000     0.408130000000     0.0304997  
C218     C      0.139480000000     0.667320000000     0.408050000000     0.0303157  
C219     C      0.139020000000     0.667220000000     0.375160000000     0.0304591  
C220     C      0.138960000000     0.611510000000     0.375240000000     0.0305901  
C221     C      0.139540000000     0.667220000000     0.125170000000     0.030411   
C222     C      0.139490000000     0.611510000000     0.125230000000     0.0302257  
C223     C      0.139800000000     0.611590000000     0.158120000000     0.0304949  
C224     C      0.140050000000     0.667300000000     0.158070000000     0.0302021  
C225     C      0.780360000000     0.660010000000     0.240070000000     0.0322089  
C226     C      0.780730000000     0.618070000000     0.276820000000     0.0323345  
C227     C      0.747810000000     0.619200000000     0.278350000000     0.0322851  
C228     C      0.747370000000     0.658870000000     0.239180000000     0.0316996  
C229     C      0.997630000000     0.667490000000     0.261720000000     0.0306794  
C230     C      0.997630000000     0.611780000000     0.261640000000     0.0306906  
C231     C      0.030570000000     0.611780000000     0.263350000000     0.0307297  
C232     C      0.030600000000     0.667490000000     0.263270000000     0.0305778  
C233     C      0.780430000000     0.659890000000     0.489070000000     0.0322801  
C234     C      0.780440000000     0.617850000000     0.025710000000     0.0314503  
C235     C      0.747500000000     0.618900000000     0.026840000000     0.0309825  
C236     C      0.747450000000     0.658690000000     0.487780000000     0.0316169  
C237     C      0.888870000000     0.611620000000     0.367400000000     0.030522   
C238     C      0.888620000000     0.667340000000     0.367480000000     0.030326   
C239     C      0.889070000000     0.667240000000     0.400380000000     0.0304914  
C240     C      0.889130000000     0.611530000000     0.400290000000     0.0305691  
C241     C      0.888290000000     0.611610000000     0.117410000000     0.0305167  
C242     C      0.888040000000     0.667320000000     0.117470000000     0.0301342  
C243     C      0.888560000000     0.667240000000     0.150360000000     0.0304507  
C244     C      0.888600000000     0.611530000000     0.150310000000     0.0302713  
C245     C      0.997520000000     0.611780000000     0.012190000000     0.0301203  
C246     C      0.997500000000     0.667490000000     0.512260000000     0.0306172  
C247     C      0.030470000000     0.667490000000     0.513810000000     0.0306153  
C248     C      0.030460000000     0.611780000000     0.013900000000     0.0301424  
C249     C      0.368150000000     0.248010000000     0.242560000000     0.0322015  
C250     C      0.410200000000     0.247790000000     0.279190000000     0.0322781  
C251     C      0.409190000000     0.280710000000     0.280460000000     0.0322387  
C252     C      0.369370000000     0.281010000000     0.241440000000     0.0317205  
C253     C      0.410020000000     0.248240000000     0.996500000000     0.0381579  
C254     C      0.368570000000     0.247500000000     0.533800000000     0.0322378  
C255     C      0.369950000000     0.280430000000     0.535910000000     0.0317896  
C256     C      0.409110000000     0.281190000000     0.996230000000     0.0372393  
C257     C      0.359380000000     0.142240000000     0.403570000000     0.0302815  
C258     C      0.415030000000     0.139710000000     0.403480000000     0.0301874  
C259     C      0.415020000000     0.139570000000     0.370650000000     0.0303654  
C260     C      0.359370000000     0.142110000000     0.370580000000     0.0302511  
C261     C      0.362210000000     0.137150000000     0.120660000000     0.0303654  
C262     C      0.417880000000     0.139590000000     0.120590000000     0.0305704  
C263     C      0.417870000000     0.139710000000     0.153560000000     0.0306104  
C264     C      0.362200000000     0.137270000000     0.153470000000     0.0303812  
C265     C      0.408270000000     0.748310000000     0.282910000000     0.0320322  
C266     C      0.368680000000     0.747230000000     0.243650000000     0.0317107  
C267     C      0.367610000000     0.780210000000     0.243900000000     0.032339   
C268     C      0.409470000000     0.781200000000     0.280740000000     0.0322959  
C269     C      0.416120000000     0.997780000000     0.260830000000     0.0307475  
C270     C      0.360420000000     0.997810000000     0.262370000000     0.0305905  
C271     C      0.360450000000     0.030800000000     0.262860000000     0.0305385  
C272     C      0.416150000000     0.030760000000     0.261340000000     0.0307028  
C273     C      0.367710000000     0.780470000000     0.492790000000     0.032294   
C274     C      0.409690000000     0.780980000000     0.029500000000     0.031433   
C275     C      0.408610000000     0.748060000000     0.031110000000     0.0308575  
C276     C      0.368890000000     0.747490000000     0.491970000000     0.0316381  
C277     C      0.360600000000     0.888880000000     0.402340000000     0.0304708  
C278     C      0.416320000000     0.888930000000     0.402270000000     0.0304353  
C279     C      0.416230000000     0.889050000000     0.369380000000     0.0305911  
C280     C      0.360510000000     0.888790000000     0.369450000000     0.0303203  
C281     C      0.360470000000     0.888720000000     0.119440000000     0.0301549  
C282     C      0.416190000000     0.888890000000     0.119380000000     0.03042    
C283     C      0.416270000000     0.888760000000     0.152280000000     0.0304289  
C284     C      0.360560000000     0.888790000000     0.152340000000     0.0304171  
C285     C      0.416170000000     0.997810000000     0.510570000000     0.0307265  
C286     C      0.360450000000     0.997850000000     0.010850000000     0.0299941  
C287     C      0.360480000000     0.030850000000     0.010810000000     0.0299611  
C288     C      0.416200000000     0.030790000000     0.510660000000     0.0307213  
C289     C      0.388290000000     0.888920000000     0.570640000000     0.476347   
C290     C      0.388510000000     0.888950000000     0.951060000000     0.475815   
C291     C      0.388310000000     0.948920000000     0.010810000000     0.476108   
C292     C      0.388530000000     0.829160000000     0.010810000000     0.477444   
C293     C      0.388310000000     0.888970000000     0.820660000000     0.476783   
C294     C      0.388460000000     0.888840000000     0.701080000000     0.47641    
C295     C      0.388270000000     0.948890000000     0.760970000000     0.477005   
C296     C      0.388510000000     0.829130000000     0.761150000000     0.478377   
C297     C      0.387560000000     0.140710000000     0.952320000000     0.47511    
C298     C      0.389700000000     0.138630000000     0.571880000000     0.476998   
C299     C      0.388430000000     0.079720000000     0.511080000000     0.476621   
C300     C      0.388880000000     0.199450000000     0.513550000000     0.478593   
C301     C      0.389660000000     0.138950000000     0.702260000000     0.476677   
C302     C      0.387530000000     0.140360000000     0.821830000000     0.476136   
C303     C      0.388390000000     0.079690000000     0.762500000000     0.476894   
C304     C      0.388850000000     0.199440000000     0.761210000000     0.478304   
C305     C      0.887950000000     0.639500000000     0.568680000000     0.476431   
C306     C      0.889380000000     0.639320000000     0.949100000000     0.475548   
C307     C      0.948640000000     0.639590000000     0.010110000000     0.475781   
C308     C      0.828880000000     0.639160000000     0.007890000000     0.477208   
C309     C      0.888440000000     0.639530000000     0.818680000000     0.47639    
C310     C      0.889080000000     0.639340000000     0.699100000000     0.476626   
C311     C      0.948760000000     0.639600000000     0.759730000000     0.476914   
C312     C      0.828990000000     0.639240000000     0.758360000000     0.478366   
C313     C      0.139650000000     0.639510000000     0.956850000000     0.47541    
C314     C      0.139010000000     0.639330000000     0.576440000000     0.476352   
C315     C      0.079340000000     0.639590000000     0.515810000000     0.476847   
C316     C      0.199100000000     0.639210000000     0.517170000000     0.478462   
C317     C      0.140140000000     0.639470000000     0.706860000000     0.476171   
C318     C      0.138720000000     0.639300000000     0.826440000000     0.476569   
C319     C      0.079450000000     0.639580000000     0.765430000000     0.476497   
C320     C      0.199210000000     0.639120000000     0.767650000000     0.478339   
C321     C      0.638490000000     0.138980000000     0.573240000000     0.476643   
C322     C      0.640620000000     0.140380000000     0.953670000000     0.474835   
C323     C      0.639750000000     0.079720000000     0.013000000000     0.475807   
C324     C      0.639320000000     0.199470000000     0.014280000000     0.477112   
C325     C      0.640590000000     0.140750000000     0.823180000000     0.476077   
C326     C      0.638450000000     0.138660000000     0.703620000000     0.476684   
C327     C      0.639710000000     0.079750000000     0.764420000000     0.477074   
C328     C      0.639280000000     0.199480000000     0.761950000000     0.478497   
C329     C      0.639790000000     0.889000000000     0.954870000000     0.475592   
C330     C      0.639650000000     0.888870000000     0.574450000000     0.476594   
C331     C      0.639840000000     0.948920000000     0.514570000000     0.476886   
C332     C      0.639590000000     0.829160000000     0.514390000000     0.478311   
C333     C      0.639820000000     0.888940000000     0.704890000000     0.476189   
C334     C      0.639600000000     0.888980000000     0.824480000000     0.476691   
C335     C      0.639810000000     0.948960000000     0.764720000000     0.476742   
C336     C      0.639560000000     0.829190000000     0.764730000000     0.478482   
C337     C      0.388480000000     0.448910000000     0.016110000000     0.467542   
C338     C      0.389220000000     0.329240000000     0.016470000000     0.469134   
C339     C      0.448710000000     0.389290000000     0.516600000000     0.4762     
C340     C      0.329030000000     0.388720000000     0.515730000000     0.47751    
C341     C      0.388920000000     0.448900000000     0.766050000000     0.475954   
C342     C      0.388870000000     0.329290000000     0.761990000000     0.477305   
C343     C      0.448670000000     0.389050000000     0.761600000000     0.475631   
C344     C      0.329080000000     0.389180000000     0.766140000000     0.477291   
C345     C      0.388750000000     0.579700000000     0.515170000000     0.475943   
C346     C      0.388580000000     0.699350000000     0.512550000000     0.477719   
C347     C      0.448580000000     0.639790000000     0.012500000000     0.467596   
C348     C      0.328930000000     0.639390000000     0.015660000000     0.469011   
C349     C      0.389180000000     0.579700000000     0.767540000000     0.47579    
C350     C      0.388420000000     0.699350000000     0.764720000000     0.477418   
C351     C      0.448720000000     0.639990000000     0.765210000000     0.475944   
C352     C      0.329050000000     0.639150000000     0.767570000000     0.477437   
C353     C      0.579490000000     0.389070000000     0.013900000000     0.467494   
C354     C      0.699080000000     0.389220000000     0.009340000000     0.468945   
C355     C      0.639230000000     0.448930000000     0.509440000000     0.475688   
C356     C      0.639300000000     0.329320000000     0.513490000000     0.477256   
C357     C      0.579450000000     0.389310000000     0.758900000000     0.47619    
C358     C      0.699130000000     0.388760000000     0.759760000000     0.47721    
C359     C      0.639670000000     0.448950000000     0.759400000000     0.475847   
C360     C      0.638950000000     0.329270000000     0.759020000000     0.477252   
C361     C      0.638920000000     0.579730000000     0.007980000000     0.467538   
C362     C      0.639660000000     0.699380000000     0.010810000000     0.468906   
C363     C      0.579370000000     0.640010000000     0.510310000000     0.475853   
C364     C      0.699040000000     0.639190000000     0.507950000000     0.477531   
C365     C      0.639360000000     0.579730000000     0.760350000000     0.475947   
C366     C      0.639500000000     0.699380000000     0.762980000000     0.477642   
C367     C      0.579510000000     0.639810000000     0.763020000000     0.475772   
C368     C      0.699170000000     0.639430000000     0.759870000000     0.477527   
C369     C      0.139650000000     0.387430000000     0.575140000000     0.476384   
C370     C      0.139150000000     0.389540000000     0.955570000000     0.475998   
C371     C      0.079430000000     0.388350000000     0.015240000000     0.475646   
C372     C      0.199190000000     0.388580000000     0.015170000000     0.477358   
C373     C      0.138450000000     0.389670000000     0.825160000000     0.476533   
C374     C      0.140410000000     0.387570000000     0.705600000000     0.476087   
C375     C      0.079480000000     0.388390000000     0.764070000000     0.477093   
C376     C      0.199230000000     0.388980000000     0.766660000000     0.47811    
C377     C      0.889710000000     0.389690000000     0.950300000000     0.475654   
C378     C      0.887750000000     0.387590000000     0.569860000000     0.476107   
C379     C      0.948680000000     0.388400000000     0.511380000000     0.4768     
C380     C      0.828930000000     0.389010000000     0.508800000000     0.478115   
C381     C      0.888500000000     0.387450000000     0.700320000000     0.476348   
C382     C      0.889010000000     0.389560000000     0.819890000000     0.476833   
C383     C      0.948730000000     0.388360000000     0.760220000000     0.476811   
C384     C      0.828970000000     0.388610000000     0.760290000000     0.478305   
C385     C      0.888250000000     0.417790000000     0.868590000000     0.0307646  
C386     C      0.890710000000     0.362130000000     0.868710000000     0.0308616  
C387     C      0.890960000000     0.362160000000     0.901520000000     0.0307181  
C388     C      0.888520000000     0.417820000000     0.901550000000     0.0310009  
C389     C      0.889030000000     0.415020000000     0.618700000000     0.0304093  
C390     C      0.886400000000     0.359380000000     0.618570000000     0.0303686  
C391     C      0.886680000000     0.359330000000     0.651550000000     0.0302325  
C392     C      0.889310000000     0.414980000000     0.651520000000     0.0302664  
C393     C      0.030570000000     0.416170000000     0.763110000000     0.0308776  
C394     C      0.030630000000     0.360480000000     0.761780000000     0.0307191  
C395     C      0.997640000000     0.360480000000     0.760680000000     0.0307279  
C396     C      0.997610000000     0.416170000000     0.762010000000     0.0308195  
C397     C      0.139920000000     0.417760000000     0.906870000000     0.0309727  
C398     C      0.137450000000     0.362100000000     0.906750000000     0.0308479  
C399     C      0.137190000000     0.362140000000     0.873940000000     0.0306954  
C400     C      0.139650000000     0.417800000000     0.873900000000     0.0308785  
C401     C      0.141470000000     0.359310000000     0.623900000000     0.0303425  
C402     C      0.138850000000     0.414960000000     0.623940000000     0.0302891  
C403     C      0.139130000000     0.415000000000     0.656760000000     0.0303921  
C404     C      0.141750000000     0.359350000000     0.656880000000     0.0302111  
C405     C      0.997530000000     0.360480000000     0.013670000000     0.0300158  
C406     C      0.997600000000     0.416170000000     0.512340000000     0.0307595  
C407     C      0.030560000000     0.416170000000     0.513440000000     0.0306632  
C408     C      0.030510000000     0.360470000000     0.014770000000     0.0299555  
C409     C      0.780620000000     0.409350000000     0.741480000000     0.0323219  
C410     C      0.780430000000     0.368130000000     0.779040000000     0.032385   
C411     C      0.747450000000     0.369350000000     0.780130000000     0.0319059  
C412     C      0.747680000000     0.408250000000     0.740180000000     0.0321195  
C413     C      0.639290000000     0.498030000000     0.731850000000     0.0305262  
C414     C      0.640120000000     0.497650000000     0.787400000000     0.0306866  
C415     C      0.639850000000     0.530610000000     0.787600000000     0.0306769  
C416     C      0.639340000000     0.531060000000     0.732040000000     0.0303794  
C417     C      0.780370000000     0.368440000000     0.489940000000     0.032221   
C418     C      0.780580000000     0.410480000000     0.026570000000     0.0314711  
C419     C      0.747660000000     0.409560000000     0.027750000000     0.0308936  
C420     C      0.747370000000     0.369730000000     0.488730000000     0.0316261  
C421     C      0.637500000000     0.498200000000     0.536110000000     0.0303448  
C422     C      0.640560000000     0.497470000000     0.980640000000     0.0355321  
C423     C      0.640470000000     0.530570000000     0.980240000000     0.0354621  
C424     C      0.637370000000     0.531070000000     0.535710000000     0.0306698  
C425     C      0.498080000000     0.640010000000     0.792190000000     0.0306368  
C426     C      0.497150000000     0.640270000000     0.736640000000     0.0304623  
C427     C      0.530130000000     0.640050000000     0.736140000000     0.0305948  
C428     C      0.531090000000     0.640090000000     0.791690000000     0.0304597  
C429     C      0.497960000000     0.640040000000     0.539370000000     0.0306406  
C430     C      0.497000000000     0.640090000000     0.983830000000     0.0356248  
C431     C      0.530010000000     0.640020000000     0.983330000000     0.0355503  
C432     C      0.530940000000     0.640270000000     0.538880000000     0.0304209  
C433     C      0.280790000000     0.369690000000     0.786740000000     0.0316913  
C434     C      0.280500000000     0.409520000000     0.747720000000     0.0322397  
C435     C      0.247580000000     0.410450000000     0.748900000000     0.0323461  
C436     C      0.247790000000     0.368400000000     0.785520000000     0.0322736  
C437     C      0.496940000000     0.387410000000     0.732450000000     0.0305545  
C438     C      0.498170000000     0.390970000000     0.787880000000     0.0304021  
C439     C      0.531060000000     0.391090000000     0.787170000000     0.0305913  
C440     C      0.530020000000     0.387470000000     0.731740000000     0.0304372  
C441     C      0.390640000000     0.498170000000     0.739390000000     0.0304376  
C442     C      0.387570000000     0.497430000000     0.794860000000     0.0304106  
C443     C      0.387650000000     0.530540000000     0.795260000000     0.0305117  
C444     C      0.390750000000     0.531040000000     0.739800000000     0.0306401  
C445     C      0.280480000000     0.408210000000     0.535300000000     0.0321167  
C446     C      0.280710000000     0.369310000000     0.995360000000     0.0368636  
C447     C      0.247740000000     0.368100000000     0.996430000000     0.0380352  
C448     C      0.247530000000     0.409310000000     0.534000000000     0.0323709  
C449     C      0.498140000000     0.387460000000     0.543760000000     0.0304372  
C450     C      0.497100000000     0.391090000000     0.988330000000     0.0355564  
C451     C      0.529990000000     0.390980000000     0.987620000000     0.0354096  
C452     C      0.531220000000     0.387410000000     0.543050000000     0.0305646  
C453     C      0.388010000000     0.497620000000     0.488100000000     0.0305822  
C454     C      0.388840000000     0.498000000000     0.043650000000     0.0293597  
C455     C      0.388780000000     0.531020000000     0.043460000000     0.0293267  
C456     C      0.388270000000     0.530580000000     0.487910000000     0.0306999  
C457     C      0.618400000000     0.781010000000     0.746040000000     0.0323357  
C458     C      0.660380000000     0.780500000000     0.782750000000     0.0322814  
C459     C      0.659190000000     0.747520000000     0.783560000000     0.0318012  
C460     C      0.619480000000     0.748090000000     0.744430000000     0.0322494  
C461     C      0.660480000000     0.780240000000     0.031640000000     0.031293   
C462     C      0.618620000000     0.781230000000     0.494800000000     0.0324067  
C463     C      0.619810000000     0.748340000000     0.492630000000     0.0320145  
C464     C      0.659400000000     0.747250000000     0.031890000000     0.0304287  
C465     C      0.667590000000     0.888810000000     0.906080000000     0.0307971  
C466     C      0.611880000000     0.889090000000     0.906160000000     0.0310366  
C467     C      0.611780000000     0.888970000000     0.873260000000     0.0306864  
C468     C      0.667500000000     0.888910000000     0.873190000000     0.0308767  
C469     C      0.667550000000     0.888820000000     0.623190000000     0.030417   
C470     C      0.611840000000     0.888800000000     0.623260000000     0.0304109  
C471     C      0.611920000000     0.888930000000     0.656150000000     0.0304543  
C472     C      0.667630000000     0.888740000000     0.656090000000     0.030339   
C473     C      0.618140000000     0.248270000000     0.779000000000     0.0323174  
C474     C      0.659590000000     0.247530000000     0.741700000000     0.0323998  
C475     C      0.658220000000     0.280460000000     0.739580000000     0.0316862  
C476     C      0.619060000000     0.281220000000     0.779260000000     0.0324559  
C477     C      0.611930000000     0.030820000000     0.764850000000     0.0307603  
C478     C      0.667650000000     0.030880000000     0.764710000000     0.0307684  
C479     C      0.667670000000     0.997880000000     0.764670000000     0.0307949  
C480     C      0.611960000000     0.997840000000     0.764950000000     0.0308556  
C481     C      0.617970000000     0.247820000000     0.996290000000     0.0380401  
C482     C      0.660020000000     0.248040000000     0.532930000000     0.0322094  
C483     C      0.658810000000     0.281040000000     0.534040000000     0.0317333  
C484     C      0.618980000000     0.280740000000     0.995020000000     0.0371345  
C485     C      0.613120000000     0.139740000000     0.872020000000     0.030511   
C486     C      0.668780000000     0.142260000000     0.871930000000     0.0305256  
C487     C      0.668780000000     0.142140000000     0.904920000000     0.0307167  
C488     C      0.613130000000     0.139610000000     0.904850000000     0.030712   
C489     C      0.665940000000     0.137180000000     0.654840000000     0.030398   
C490     C      0.610270000000     0.139630000000     0.654910000000     0.0306525  
C491     C      0.610280000000     0.139750000000     0.621940000000     0.0305568  
C492     C      0.665950000000     0.137300000000     0.622030000000     0.0304904  
C493     C      0.667680000000     0.030830000000     0.012660000000     0.03       
C494     C      0.611980000000     0.030800000000     0.514170000000     0.0306416  
C495     C      0.612010000000     0.997820000000     0.514690000000     0.0307772  
C496     C      0.667700000000     0.997830000000     0.013150000000     0.0299795  
C497     C      0.247660000000     0.659860000000     0.786460000000     0.0323431  
C498     C      0.247650000000     0.617820000000     0.749820000000     0.0323844  
C499     C      0.280580000000     0.618860000000     0.748690000000     0.0322403  
C500     C      0.280640000000     0.658650000000     0.787750000000     0.0316842  
C501     C      0.247360000000     0.618040000000     0.998710000000     0.0381245  
C502     C      0.247730000000     0.659970000000     0.535470000000     0.0322461  
C503     C      0.280730000000     0.658830000000     0.536350000000     0.0317101  
C504     C      0.280280000000     0.619160000000     0.997180000000     0.0372084  
C505     C      0.139210000000     0.611600000000     0.908130000000     0.0309078  
C506     C      0.139480000000     0.667310000000     0.908050000000     0.0308705  
C507     C      0.139020000000     0.667220000000     0.875160000000     0.0307438  
C508     C      0.138960000000     0.611510000000     0.875240000000     0.0309028  
C509     C      0.139540000000     0.667220000000     0.625170000000     0.0304858  
C510     C      0.139490000000     0.611510000000     0.625230000000     0.0302834  
C511     C      0.139800000000     0.611590000000     0.658120000000     0.0304981  
C512     C      0.140050000000     0.667300000000     0.658070000000     0.0302336  
C513     C      0.780360000000     0.660010000000     0.740070000000     0.0323008  
C514     C      0.780730000000     0.618070000000     0.776820000000     0.0323182  
C515     C      0.747810000000     0.619200000000     0.778350000000     0.032356   
C516     C      0.747370000000     0.658870000000     0.739180000000     0.0317047  
C517     C      0.997630000000     0.667490000000     0.761720000000     0.0307985  
C518     C      0.997630000000     0.611780000000     0.761640000000     0.030778   
C519     C      0.030570000000     0.611780000000     0.763350000000     0.0308229  
C520     C      0.030600000000     0.667490000000     0.763270000000     0.0307003  
C521     C      0.780430000000     0.659890000000     0.989080000000     0.0381657  
C522     C      0.780440000000     0.617850000000     0.525710000000     0.032308   
C523     C      0.747500000000     0.618900000000     0.526840000000     0.0322954  
C524     C      0.747450000000     0.658690000000     0.987780000000     0.0365257  
C525     C      0.888870000000     0.611620000000     0.867400000000     0.0308453  
C526     C      0.888620000000     0.667340000000     0.867480000000     0.0306633  
C527     C      0.889070000000     0.667240000000     0.900380000000     0.0308645  
C528     C      0.889130000000     0.611530000000     0.900290000000     0.0309654  
C529     C      0.888290000000     0.611610000000     0.617410000000     0.030549   
C530     C      0.888040000000     0.667320000000     0.617470000000     0.0302134  
C531     C      0.888560000000     0.667240000000     0.650360000000     0.0304859  
C532     C      0.888600000000     0.611530000000     0.650310000000     0.0302696  
C533     C      0.997520000000     0.611780000000     0.512190000000     0.0307186  
C534     C      0.997500000000     0.667490000000     0.012260000000     0.0299939  
C535     C      0.030470000000     0.667490000000     0.013810000000     0.0299915  
C536     C      0.030460000000     0.611780000000     0.513900000000     0.0307413  
C537     C      0.368150000000     0.248010000000     0.742560000000     0.0322498  
C538     C      0.410200000000     0.247790000000     0.779190000000     0.0323115  
C539     C      0.409190000000     0.280710000000     0.780460000000     0.0322939  
C540     C      0.369370000000     0.281010000000     0.741440000000     0.0317428  
C541     C      0.410020000000     0.248240000000     0.496500000000     0.0323595  
C542     C      0.368570000000     0.247500000000     0.033800000000     0.031309   
C543     C      0.369950000000     0.280430000000     0.035910000000     0.0304515  
C544     C      0.409110000000     0.281190000000     0.496230000000     0.0323185  
C545     C      0.359380000000     0.142240000000     0.903570000000     0.0307102  
C546     C      0.415030000000     0.139710000000     0.903480000000     0.0305701  
C547     C      0.415020000000     0.139570000000     0.870650000000     0.0306707  
C548     C      0.359370000000     0.142110000000     0.870580000000     0.030586   
C549     C      0.362210000000     0.137150000000     0.620660000000     0.030448   
C550     C      0.417880000000     0.139590000000     0.620590000000     0.0306339  
C551     C      0.417870000000     0.139710000000     0.653560000000     0.0306331  
C552     C      0.362200000000     0.137270000000     0.653470000000     0.0303944  
C553     C      0.408270000000     0.748310000000     0.782910000000     0.0320554  
C554     C      0.368680000000     0.747230000000     0.743650000000     0.0317667  
C555     C      0.367610000000     0.780210000000     0.743900000000     0.032312   
C556     C      0.409470000000     0.781200000000     0.780740000000     0.0323996  
C557     C      0.416120000000     0.997780000000     0.760830000000     0.0308365  
C558     C      0.360420000000     0.997810000000     0.762370000000     0.0307134  
C559     C      0.360450000000     0.030800000000     0.762860000000     0.0306641  
C560     C      0.416150000000     0.030760000000     0.761340000000     0.0307952  
C561     C      0.367710000000     0.780470000000     0.992790000000     0.0380577  
C562     C      0.409690000000     0.780980000000     0.529500000000     0.0323516  
C563     C      0.408610000000     0.748060000000     0.531110000000     0.0321693  
C564     C      0.368890000000     0.747490000000     0.991980000000     0.0366627  
C565     C      0.360600000000     0.888880000000     0.902340000000     0.0308819  
C566     C      0.416320000000     0.888930000000     0.902270000000     0.0308455  
C567     C      0.416230000000     0.889050000000     0.869380000000     0.0309084  
C568     C      0.360510000000     0.888790000000     0.869450000000     0.0306494  
C569     C      0.360470000000     0.888720000000     0.619440000000     0.0302418  
C570     C      0.416190000000     0.888890000000     0.619380000000     0.0304685  
C571     C      0.416270000000     0.888760000000     0.652280000000     0.0304294  
C572     C      0.360560000000     0.888800000000     0.652340000000     0.0304539  
C573     C      0.416170000000     0.997810000000     0.010570000000     0.0301172  
C574     C      0.360450000000     0.997850000000     0.510850000000     0.0306224  
C575     C      0.360480000000     0.030850000000     0.510810000000     0.0305904  
C576     C      0.416200000000     0.030790000000     0.010660000000     0.0301132  
H1       H      0.887170000000     0.440360000000     0.356570000000     0.0332285  
H2       H      0.891620000000     0.339430000000     0.356890000000     0.0333531  
H3       H      0.892040000000     0.339500000000     0.413370000000     0.033433   
H4       H      0.887590000000     0.440420000000     0.413540000000     0.0332283  
H5       H      0.890010000000     0.437710000000     0.106880000000     0.0331972  
H6       H      0.885260000000     0.336810000000     0.106550000000     0.0328403  
H7       H      0.885710000000     0.336740000000     0.163540000000     0.0329719  
H8       H      0.890460000000     0.437640000000     0.163370000000     0.0333404  
H9       H      0.042480000000     0.438830000000     0.264030000000     0.0332604  
H10      H      0.042620000000     0.337840000000     0.261620000000     0.033115   
H11      H      0.985700000000     0.337840000000     0.259770000000     0.0331321  
H12      H      0.985650000000     0.438830000000     0.262180000000     0.0332603  
H13      H      0.141010000000     0.440340000000     0.418890000000     0.0332007  
H14      H      0.136540000000     0.339410000000     0.418570000000     0.0333873  
H15      H      0.136120000000     0.339480000000     0.362080000000     0.0334246  
H16      H      0.140580000000     0.440400000000     0.361910000000     0.0332447  
H17      H      0.142440000000     0.336720000000     0.111910000000     0.0328309  
H18      H      0.137700000000     0.437620000000     0.112090000000     0.0332486  
H19      H      0.138160000000     0.437690000000     0.168570000000     0.0332591  
H20      H      0.142890000000     0.336790000000     0.168910000000     0.033014   
H21      H      0.985530000000     0.337840000000     0.513830000000     0.0331695  
H22      H      0.985690000000     0.438830000000     0.011420000000     0.0325682  
H23      H      0.042520000000     0.438820000000     0.013270000000     0.0325639  
H24      H      0.042460000000     0.337830000000     0.515680000000     0.0332043  
H25      H      0.792990000000     0.425710000000     0.226150000000     0.0305305  
H26      H      0.792650000000     0.351720000000     0.294430000000     0.030362   
H27      H      0.735060000000     0.353470000000     0.295930000000     0.0307111  
H28      H      0.735480000000     0.424160000000     0.224260000000     0.0307481  
H29      H      0.639040000000     0.486210000000     0.209200000000     0.0331404  
H30      H      0.640440000000     0.485550000000     0.309920000000     0.033402   
H31      H      0.640080000000     0.542360000000     0.310290000000     0.033745   
H32      H      0.639050000000     0.543220000000     0.209570000000     0.0328926  
H33      H      0.792600000000     0.351620000000     0.975000000000     0.0310643  
H34      H      0.792910000000     0.427140000000     0.541620000000     0.030715   
H35      H      0.735510000000     0.425840000000     0.543330000000     0.0309235  
H36      H      0.734950000000     0.353480000000     0.973330000000     0.0309752  
H37      H      0.636280000000     0.486630000000     0.058870000000     0.0336452  
H38      H      0.641850000000     0.485140000000     0.458300000000     0.0332572  
H39      H      0.641700000000     0.542400000000     0.457630000000     0.0330181  
H40      H      0.636080000000     0.543130000000     0.058200000000     0.0338049  
H41      H      0.486500000000     0.639970000000     0.314970000000     0.0335347  
H42      H      0.484810000000     0.640340000000     0.214260000000     0.0330697  
H43      H      0.541690000000     0.640070000000     0.213350000000     0.0335171  
H44      H      0.543450000000     0.640030000000     0.314060000000     0.0330896  
H45      H      0.486410000000     0.640050000000     0.062170000000     0.0335487  
H46      H      0.484640000000     0.640030000000     0.461450000000     0.0330709  
H47      H      0.541590000000     0.639990000000     0.460550000000     0.033533   
H48      H      0.543280000000     0.640340000000     0.061260000000     0.033141   
H49      H      0.293210000000     0.353440000000     0.302140000000     0.0306364  
H50      H      0.292660000000     0.425800000000     0.232150000000     0.0309167  
H51      H      0.235250000000     0.427100000000     0.233850000000     0.030729   
H52      H      0.235560000000     0.351590000000     0.300460000000     0.0304381  
H53      H      0.484420000000     0.385920000000     0.210220000000     0.0334119  
H54      H      0.486790000000     0.392400000000     0.310720000000     0.0334181  
H55      H      0.543360000000     0.392580000000     0.309530000000     0.0334541  
H56      H      0.541620000000     0.386030000000     0.209020000000     0.0333323  
H57      H      0.391860000000     0.486600000000     0.216630000000     0.0335633  
H58      H      0.386280000000     0.485100000000     0.317200000000     0.0332586  
H59      H      0.386410000000     0.542370000000     0.317880000000     0.0330178  
H60      H      0.392040000000     0.543110000000     0.217300000000     0.0336928  
H61      H      0.292680000000     0.424110000000     0.051230000000     0.0306005  
H62      H      0.293100000000     0.353430000000     0.479550000000     0.0306762  
H63      H      0.235510000000     0.351680000000     0.481040000000     0.0303892  
H64      H      0.235170000000     0.425670000000     0.049330000000     0.0302436  
H65      H      0.486550000000     0.386020000000     0.066480000000     0.0333849  
H66      H      0.484800000000     0.392580000000     0.465970000000     0.0334457  
H67      H      0.541360000000     0.392410000000     0.464780000000     0.0333967  
H68      H      0.543750000000     0.385920000000     0.065280000000     0.0334595  
H69      H      0.387690000000     0.485530000000     0.965590000000     0.0331138  
H70      H      0.389100000000     0.486170000000     0.566300000000     0.0332048  
H71      H      0.389070000000     0.543190000000     0.565940000000     0.032868   
H72      H      0.388030000000     0.542330000000     0.965220000000     0.0333797  
H73      H      0.601730000000     0.793500000000     0.231140000000     0.0306792  
H74      H      0.677110000000     0.792600000000     0.297890000000     0.0303617  
H75      H      0.675400000000     0.734980000000     0.298920000000     0.0306314  
H76      H      0.603260000000     0.736040000000     0.228710000000     0.030961   
H77      H      0.677120000000     0.792130000000     0.547040000000     0.0303516  
H78      H      0.601960000000     0.793930000000     0.980060000000     0.0312902  
H79      H      0.603670000000     0.736480000000     0.976680000000     0.0312557  
H80      H      0.675580000000     0.734530000000     0.547110000000     0.0306607  
H81      H      0.690260000000     0.888740000000     0.417980000000     0.0331092  
H82      H      0.589240000000     0.889160000000     0.418110000000     0.0332876  
H83      H      0.589120000000     0.889030000000     0.361370000000     0.0331481  
H84      H      0.690140000000     0.888840000000     0.361240000000     0.0333533  
H85      H      0.690190000000     0.888790000000     0.111240000000     0.0331377  
H86      H      0.589170000000     0.888810000000     0.111360000000     0.0329675  
H87      H      0.589280000000     0.888970000000     0.168100000000     0.0332933  
H88      H      0.690300000000     0.888710000000     0.168000000000     0.0329687  
H89      H      0.601740000000     0.236320000000     0.294610000000     0.0304348  
H90      H      0.676170000000     0.234910000000     0.226800000000     0.0303279  
H91      H      0.674180000000     0.292460000000     0.223560000000     0.0305284  
H92      H      0.603020000000     0.293810000000     0.294760000000     0.0306458  
H93      H      0.589260000000     0.042750000000     0.264910000000     0.0332454  
H94      H      0.690290000000     0.042860000000     0.264600000000     0.0331135  
H95      H      0.690330000000     0.985930000000     0.264590000000     0.033114   
H96      H      0.589310000000     0.985880000000     0.265050000000     0.0332459  
H97      H      0.601290000000     0.235480000000     0.481290000000     0.0306453  
H98      H      0.676800000000     0.235830000000     0.047920000000     0.0302059  
H99      H      0.675070000000     0.293460000000     0.049430000000     0.0305148  
H100     H      0.602710000000     0.292900000000     0.479420000000     0.0308615  
H101     H      0.590440000000     0.138750000000     0.360190000000     0.0332283  
H102     H      0.691350000000     0.143310000000     0.359920000000     0.0330753  
H103     H      0.691370000000     0.143110000000     0.416920000000     0.0330681  
H104     H      0.590460000000     0.138530000000     0.416680000000     0.0331728  
H105     H      0.688610000000     0.136160000000     0.166680000000     0.03332    
H106     H      0.587680000000     0.140600000000     0.166910000000     0.0333193  
H107     H      0.587700000000     0.140800000000     0.109930000000     0.0332633  
H108     H      0.688630000000     0.136350000000     0.110200000000     0.0331907  
H109     H      0.690310000000     0.042810000000     0.511880000000     0.0331765  
H110     H      0.589320000000     0.042730000000     0.014630000000     0.0326263  
H111     H      0.589370000000     0.985870000000     0.015480000000     0.0325777  
H112     H      0.690350000000     0.985870000000     0.512700000000     0.0332011  
H113     H      0.235350000000     0.676630000000     0.301390000000     0.0303503  
H114     H      0.235370000000     0.601130000000     0.234770000000     0.0305474  
H115     H      0.292850000000     0.602630000000     0.233140000000     0.0308667  
H116     H      0.292970000000     0.674900000000     0.303220000000     0.0305954  
H117     H      0.234930000000     0.601370000000     0.483760000000     0.0308523  
H118     H      0.235570000000     0.676680000000     0.050580000000     0.0299749  
H119     H      0.293210000000     0.675060000000     0.051740000000     0.0303206  
H120     H      0.292390000000     0.602990000000     0.481450000000     0.0310934  
H121     H      0.139260000000     0.588970000000     0.420090000000     0.0335427  
H122     H      0.139670000000     0.689980000000     0.419950000000     0.0330939  
H123     H      0.138980000000     0.689850000000     0.363200000000     0.0333594  
H124     H      0.138800000000     0.588840000000     0.363350000000     0.0332804  
H125     H      0.139470000000     0.689860000000     0.113230000000     0.0330941  
H126     H      0.139310000000     0.588850000000     0.113330000000     0.0328642  
H127     H      0.139860000000     0.588950000000     0.170060000000     0.0331386  
H128     H      0.140250000000     0.689960000000     0.169970000000     0.0329672  
H129     H      0.792530000000     0.676720000000     0.224950000000     0.030246   
H130     H      0.793160000000     0.601400000000     0.291770000000     0.0308538  
H131     H      0.735690000000     0.603030000000     0.294080000000     0.0311048  
H132     H      0.734890000000     0.675100000000     0.223800000000     0.0304833  
H133     H      0.985680000000     0.690140000000     0.261170000000     0.0331166  
H134     H      0.985690000000     0.589130000000     0.261070000000     0.0332486  
H135     H      0.042500000000     0.589120000000     0.263910000000     0.0332429  
H136     H      0.042560000000     0.690130000000     0.263830000000     0.0331445  
H137     H      0.792740000000     0.676670000000     0.474150000000     0.030361   
H138     H      0.792720000000     0.601160000000     0.040770000000     0.0303483  
H139     H      0.735240000000     0.602670000000     0.042390000000     0.0307573  
H140     H      0.735130000000     0.674940000000     0.472310000000     0.0305891  
H141     H      0.888830000000     0.588990000000     0.355450000000     0.03354    
H142     H      0.888430000000     0.690000000000     0.355590000000     0.033084   
H143     H      0.889120000000     0.689880000000     0.412330000000     0.0333427  
H144     H      0.889290000000     0.588860000000     0.412190000000     0.0332893  
H145     H      0.888230000000     0.588970000000     0.105470000000     0.0330493  
H146     H      0.887850000000     0.689980000000     0.105560000000     0.0328252  
H147     H      0.888630000000     0.689880000000     0.162310000000     0.0331991  
H148     H      0.888780000000     0.588870000000     0.162210000000     0.032965   
H149     H      0.985580000000     0.589120000000     0.011620000000     0.0325497  
H150     H      0.985540000000     0.690140000000     0.511710000000     0.0331808  
H151     H      0.042430000000     0.690140000000     0.514360000000     0.0331891  
H152     H      0.042390000000     0.589120000000     0.014460000000     0.0325327  
H153     H      0.351370000000     0.235800000000     0.227570000000     0.0304554  
H154     H      0.426880000000     0.235450000000     0.294200000000     0.0306256  
H155     H      0.425460000000     0.292860000000     0.296060000000     0.0308523  
H156     H      0.353110000000     0.293430000000     0.226050000000     0.0306909  
H157     H      0.426420000000     0.236280000000     0.980890000000     0.0309612  
H158     H      0.352000000000     0.234880000000     0.548700000000     0.0304072  
H159     H      0.353990000000     0.292430000000     0.551930000000     0.0305522  
H160     H      0.425150000000     0.293780000000     0.980730000000     0.0308543  
H161     H      0.336800000000     0.143290000000     0.415580000000     0.0330548  
H162     H      0.437710000000     0.138720000000     0.415310000000     0.033231   
H163     H      0.437700000000     0.138500000000     0.358820000000     0.0331428  
H164     H      0.336780000000     0.143090000000     0.358570000000     0.0330664  
H165     H      0.339540000000     0.136130000000     0.108820000000     0.0331855  
H166     H      0.440470000000     0.140560000000     0.108590000000     0.0331904  
H167     H      0.440450000000     0.140750000000     0.165570000000     0.0333579  
H168     H      0.339520000000     0.136320000000     0.165300000000     0.0333032  
H169     H      0.424410000000     0.736450000000     0.298860000000     0.0310297  
H170     H      0.352500000000     0.734500000000     0.228430000000     0.0306659  
H171     H      0.350960000000     0.792110000000     0.228500000000     0.0302649  
H172     H      0.426130000000     0.793890000000     0.295480000000     0.0306904  
H173     H      0.438760000000     0.985830000000     0.260040000000     0.0332527  
H174     H      0.337770000000     0.985850000000     0.262830000000     0.0331518  
H175     H      0.337830000000     0.042790000000     0.263640000000     0.0331545  
H176     H      0.438810000000     0.042690000000     0.260880000000     0.0332898  
H177     H      0.350980000000     0.792570000000     0.477650000000     0.0303346  
H178     H      0.426360000000     0.793460000000     0.044400000000     0.0304058  
H179     H      0.424830000000     0.736000000000     0.046830000000     0.0308428  
H180     H      0.352680000000     0.734960000000     0.476620000000     0.0306577  
H181     H      0.337960000000     0.888820000000     0.414290000000     0.0333628  
H182     H      0.438990000000     0.888990000000     0.414170000000     0.0331108  
H183     H      0.438870000000     0.889120000000     0.357420000000     0.0333243  
H184     H      0.337840000000     0.888710000000     0.357560000000     0.0330975  
H185     H      0.337810000000     0.888690000000     0.107540000000     0.0328321  
H186     H      0.438830000000     0.888930000000     0.107440000000     0.0332009  
H187     H      0.438940000000     0.888770000000     0.164180000000     0.0330524  
H188     H      0.337920000000     0.888760000000     0.164290000000     0.0332053  
H189     H      0.438820000000     0.985840000000     0.510470000000     0.0332345  
H190     H      0.337790000000     0.985900000000     0.010930000000     0.0323645  
H191     H      0.337850000000     0.042840000000     0.010910000000     0.0323789  
H192     H      0.438870000000     0.042710000000     0.510600000000     0.0332217  
H193     H      0.887170000000     0.440360000000     0.856570000000     0.0335301  
H194     H      0.891620000000     0.339430000000     0.856890000000     0.0337454  
H195     H      0.892040000000     0.339500000000     0.913380000000     0.0343622  
H196     H      0.887590000000     0.440420000000     0.913540000000     0.0341575  
H197     H      0.890010000000     0.437710000000     0.606880000000     0.0332731  
H198     H      0.885260000000     0.336810000000     0.606550000000     0.0330992  
H199     H      0.885710000000     0.336740000000     0.663540000000     0.0331517  
H200     H      0.890460000000     0.437640000000     0.663370000000     0.0333586  
H201     H      0.042480000000     0.438830000000     0.764030000000     0.0333515  
H202     H      0.042620000000     0.337840000000     0.761620000000     0.0333315  
H203     H      0.985700000000     0.337840000000     0.759770000000     0.0333452  
H204     H      0.985650000000     0.438830000000     0.762180000000     0.0333467  
H205     H      0.141010000000     0.440340000000     0.918890000000     0.0341015  
H206     H      0.136540000000     0.339410000000     0.918570000000     0.0343233  
H207     H      0.136120000000     0.339480000000     0.862080000000     0.0338292  
H208     H      0.140580000000     0.440400000000     0.861920000000     0.0335292  
H209     H      0.142440000000     0.336720000000     0.611910000000     0.0331019  
H210     H      0.137700000000     0.437620000000     0.612090000000     0.033349   
H211     H      0.138150000000     0.437690000000     0.668570000000     0.0332818  
H212     H      0.142890000000     0.336790000000     0.668910000000     0.0331758  
H213     H      0.985530000000     0.337840000000     0.013830000000     0.0323852  
H214     H      0.985690000000     0.438830000000     0.511420000000     0.0332563  
H215     H      0.042520000000     0.438820000000     0.513270000000     0.0332554  
H216     H      0.042460000000     0.337830000000     0.015680000000     0.0324279  
H217     H      0.792990000000     0.425710000000     0.726150000000     0.0305435  
H218     H      0.792650000000     0.351720000000     0.794430000000     0.0305455  
H219     H      0.735060000000     0.353470000000     0.795930000000     0.0308432  
H220     H      0.735480000000     0.424160000000     0.724260000000     0.0307594  
H221     H      0.639040000000     0.486210000000     0.709200000000     0.0331774  
H222     H      0.640440000000     0.485550000000     0.809920000000     0.03351    
H223     H      0.640080000000     0.542360000000     0.810290000000     0.0338405  
H224     H      0.639050000000     0.543220000000     0.709570000000     0.032877   
H225     H      0.792600000000     0.351620000000     0.475000000000     0.0304458  
H226     H      0.792920000000     0.427140000000     0.041620000000     0.0305061  
H227     H      0.735510000000     0.425840000000     0.043330000000     0.0308138  
H228     H      0.734940000000     0.353490000000     0.473330000000     0.030654   
H229     H      0.636280000000     0.486620000000     0.558860000000     0.0336004  
H230     H      0.641850000000     0.485140000000     0.958300000000     0.0329972  
H231     H      0.641700000000     0.542400000000     0.957630000000     0.0327624  
H232     H      0.636080000000     0.543130000000     0.558210000000     0.0337166  
H233     H      0.486500000000     0.639970000000     0.814970000000     0.0336249  
H234     H      0.484810000000     0.640340000000     0.714260000000     0.0330827  
H235     H      0.541690000000     0.640070000000     0.713350000000     0.0335031  
H236     H      0.543450000000     0.640030000000     0.814060000000     0.0331952  
H237     H      0.486410000000     0.640050000000     0.562170000000     0.0334872  
H238     H      0.484640000000     0.640030000000     0.961450000000     0.0327733  
H239     H      0.541590000000     0.639990000000     0.960550000000     0.0331959  
H240     H      0.543280000000     0.640340000000     0.561260000000     0.0330944  
H241     H      0.293210000000     0.353440000000     0.802140000000     0.0307836  
H242     H      0.292660000000     0.425800000000     0.732140000000     0.0309257  
H243     H      0.235250000000     0.427100000000     0.733850000000     0.0307524  
H244     H      0.235560000000     0.351590000000     0.800460000000     0.0306233  
H245     H      0.484420000000     0.385920000000     0.710220000000     0.0334327  
H246     H      0.486790000000     0.392400000000     0.810720000000     0.0334908  
H247     H      0.543360000000     0.392580000000     0.809520000000     0.0335363  
H248     H      0.541620000000     0.386030000000     0.709020000000     0.0333488  
H249     H      0.391860000000     0.486600000000     0.716630000000     0.0335608  
H250     H      0.386280000000     0.485100000000     0.817200000000     0.033367   
H251     H      0.386410000000     0.542370000000     0.817880000000     0.0330948  
H252     H      0.392040000000     0.543110000000     0.717300000000     0.0337204  
H253     H      0.292680000000     0.424110000000     0.551230000000     0.0307405  
H254     H      0.293100000000     0.353430000000     0.979550000000     0.0310239  
H255     H      0.235510000000     0.351680000000     0.981040000000     0.0310078  
H256     H      0.235170000000     0.425670000000     0.549330000000     0.0304976  
H257     H      0.486550000000     0.386020000000     0.566480000000     0.0333442  
H258     H      0.484800000000     0.392580000000     0.965980000000     0.0331021  
H259     H      0.541360000000     0.392410000000     0.964780000000     0.033039   
H260     H      0.543750000000     0.385920000000     0.565280000000     0.0334359  
H261     H      0.387690000000     0.485530000000     0.465590000000     0.0334166  
H262     H      0.389090000000     0.486170000000     0.066300000000     0.0332713  
H263     H      0.389070000000     0.543180000000     0.065940000000     0.0329074  
H264     H      0.388030000000     0.542330000000     0.465220000000     0.0337171  
H265     H      0.601730000000     0.793500000000     0.731140000000     0.0306923  
H266     H      0.677110000000     0.792600000000     0.797890000000     0.0305402  
H267     H      0.675400000000     0.734980000000     0.798920000000     0.0307739  
H268     H      0.603260000000     0.736040000000     0.728710000000     0.0309772  
H269     H      0.677120000000     0.792130000000     0.047040000000     0.0300413  
H270     H      0.601960000000     0.793930000000     0.480060000000     0.030676   
H271     H      0.603670000000     0.736480000000     0.476680000000     0.0310257  
H272     H      0.675580000000     0.734530000000     0.047110000000     0.030466   
H273     H      0.690260000000     0.888740000000     0.917980000000     0.0340873  
H274     H      0.589240000000     0.889160000000     0.918110000000     0.0341693  
H275     H      0.589120000000     0.889030000000     0.861370000000     0.0334262  
H276     H      0.690140000000     0.888840000000     0.861240000000     0.0337646  
H277     H      0.690190000000     0.888790000000     0.611250000000     0.0333616  
H278     H      0.589170000000     0.888810000000     0.611360000000     0.0330847  
H279     H      0.589280000000     0.888970000000     0.668100000000     0.0333166  
H280     H      0.690300000000     0.888710000000     0.668000000000     0.0331187  
H281     H      0.601740000000     0.236320000000     0.794610000000     0.0305381  
H282     H      0.676170000000     0.234910000000     0.726800000000     0.0304153  
H283     H      0.674180000000     0.292460000000     0.723560000000     0.0305941  
H284     H      0.603020000000     0.293810000000     0.794760000000     0.0307069  
H285     H      0.589260000000     0.042750000000     0.764910000000     0.0333368  
H286     H      0.690290000000     0.042860000000     0.764600000000     0.0333362  
H287     H      0.690330000000     0.985930000000     0.764590000000     0.0333374  
H288     H      0.589310000000     0.985880000000     0.765050000000     0.0333372  
H289     H      0.601290000000     0.235480000000     0.981290000000     0.0312033  
H290     H      0.676800000000     0.235830000000     0.547920000000     0.0305108  
H291     H      0.675070000000     0.293460000000     0.549430000000     0.0307253  
H292     H      0.602710000000     0.292900000000     0.979420000000     0.0310672  
H293     H      0.590440000000     0.138750000000     0.860190000000     0.0335077  
H294     H      0.691350000000     0.143310000000     0.859920000000     0.0334836  
H295     H      0.691370000000     0.143110000000     0.916920000000     0.0340322  
H296     H      0.590460000000     0.138530000000     0.916680000000     0.0340036  
H297     H      0.688610000000     0.136150000000     0.666680000000     0.0334686  
H298     H      0.587680000000     0.140600000000     0.666910000000     0.0333577  
H299     H      0.587700000000     0.140790000000     0.609930000000     0.0334171  
H300     H      0.688630000000     0.136350000000     0.610200000000     0.0334204  
H301     H      0.690310000000     0.042810000000     0.011880000000     0.0323584  
H302     H      0.589320000000     0.042730000000     0.514630000000     0.0332868  
H303     H      0.589370000000     0.985870000000     0.515480000000     0.0332261  
H304     H      0.690350000000     0.985870000000     0.012700000000     0.0323931  
H305     H      0.235350000000     0.676630000000     0.801390000000     0.0305362  
H306     H      0.235370000000     0.601130000000     0.734760000000     0.0305654  
H307     H      0.292850000000     0.602630000000     0.733140000000     0.030888   
H308     H      0.292970000000     0.674900000000     0.803220000000     0.0307442  
H309     H      0.234930000000     0.601370000000     0.983760000000     0.0314607  
H310     H      0.235570000000     0.676680000000     0.550580000000     0.0302813  
H311     H      0.293210000000     0.675060000000     0.551740000000     0.030509   
H312     H      0.292390000000     0.602990000000     0.981450000000     0.0313539  
H313     H      0.139260000000     0.588970000000     0.920080000000     0.0344088  
H314     H      0.139670000000     0.689980000000     0.919950000000     0.0340421  
H315     H      0.138980000000     0.689850000000     0.863200000000     0.0337889  
H316     H      0.138800000000     0.588840000000     0.863350000000     0.0335762  
H317     H      0.139470000000     0.689860000000     0.613230000000     0.0333269  
H318     H      0.139310000000     0.588850000000     0.613330000000     0.0329847  
H319     H      0.139860000000     0.588950000000     0.670070000000     0.0331749  
H320     H      0.140250000000     0.689960000000     0.669970000000     0.0331188  
H321     H      0.792530000000     0.676720000000     0.724950000000     0.0303149  
H322     H      0.793160000000     0.601400000000     0.791770000000     0.0309948  
H323     H      0.735690000000     0.603030000000     0.794080000000     0.0312068  
H324     H      0.734890000000     0.675100000000     0.723800000000     0.0305361  
H325     H      0.985680000000     0.690140000000     0.761170000000     0.0333336  
H326     H      0.985690000000     0.589130000000     0.761070000000     0.033332   
H327     H      0.042500000000     0.589120000000     0.763910000000     0.0333322  
H328     H      0.042560000000     0.690130000000     0.763830000000     0.0333676  
H329     H      0.792740000000     0.676670000000     0.974150000000     0.0309402  
H330     H      0.792720000000     0.601160000000     0.540760000000     0.0305775  
H331     H      0.735240000000     0.602670000000     0.542390000000     0.0308638  
H332     H      0.735120000000     0.674940000000     0.972310000000     0.0309445  
H333     H      0.888830000000     0.588990000000     0.855450000000     0.0338343  
H334     H      0.888430000000     0.690000000000     0.855590000000     0.0334674  
H335     H      0.889120000000     0.689870000000     0.912330000000     0.0342622  
H336     H      0.889290000000     0.588860000000     0.912190000000     0.0341969  
H337     H      0.888230000000     0.588970000000     0.605470000000     0.0331328  
H338     H      0.887850000000     0.689980000000     0.605560000000     0.0330931  
H339     H      0.888630000000     0.689880000000     0.662310000000     0.0333586  
H340     H      0.888780000000     0.588870000000     0.662210000000     0.0329775  
H341     H      0.985580000000     0.589120000000     0.511620000000     0.0332223  
H342     H      0.985540000000     0.690140000000     0.011710000000     0.0323703  
H343     H      0.042430000000     0.690140000000     0.014360000000     0.0324026  
H344     H      0.042390000000     0.589120000000     0.514460000000     0.0332067  
H345     H      0.351370000000     0.235800000000     0.727570000000     0.0305403  
H346     H      0.426880000000     0.235450000000     0.794200000000     0.030719   
H347     H      0.425460000000     0.292860000000     0.796060000000     0.0309242  
H348     H      0.353110000000     0.293430000000     0.726050000000     0.0307471  
H349     H      0.426420000000     0.236280000000     0.480890000000     0.0304305  
H350     H      0.352000000000     0.234880000000     0.048690000000     0.030114   
H351     H      0.353990000000     0.292430000000     0.051930000000     0.0303407  
H352     H      0.425150000000     0.293780000000     0.480730000000     0.030643   
H353     H      0.336800000000     0.143290000000     0.915580000000     0.0340097  
H354     H      0.437710000000     0.138720000000     0.915310000000     0.0340694  
H355     H      0.437700000000     0.138500000000     0.858820000000     0.033417   
H356     H      0.336780000000     0.143090000000     0.858570000000     0.0334692  
H357     H      0.339540000000     0.136130000000     0.608820000000     0.0334191  
H358     H      0.440470000000     0.140560000000     0.608590000000     0.0333532  
H359     H      0.440450000000     0.140750000000     0.665570000000     0.0334015  
H360     H      0.339520000000     0.136320000000     0.665300000000     0.0334621  
H361     H      0.424410000000     0.736450000000     0.798860000000     0.03114    
H362     H      0.352500000000     0.734500000000     0.728430000000     0.0307105  
H363     H      0.350960000000     0.792110000000     0.728500000000     0.0303649  
H364     H      0.426130000000     0.793890000000     0.795480000000     0.0308017  
H365     H      0.438760000000     0.985830000000     0.760050000000     0.0333344  
H366     H      0.337770000000     0.985850000000     0.762830000000     0.0333763  
H367     H      0.337830000000     0.042790000000     0.763640000000     0.0333815  
H368     H      0.438810000000     0.042690000000     0.760880000000     0.0333735  
H369     H      0.350980000000     0.792570000000     0.977650000000     0.0309572  
H370     H      0.426360000000     0.793460000000     0.544400000000     0.0306731  
H371     H      0.424830000000     0.736000000000     0.546830000000     0.0309919  
H372     H      0.352680000000     0.734960000000     0.976620000000     0.0309794  
H373     H      0.337960000000     0.888820000000     0.914290000000     0.0342777  
H374     H      0.438990000000     0.888990000000     0.914170000000     0.0340001  
H375     H      0.438870000000     0.889120000000     0.857430000000     0.0336025  
H376     H      0.337840000000     0.888710000000     0.857560000000     0.033491   
H377     H      0.337810000000     0.888690000000     0.607540000000     0.033103   
H378     H      0.438830000000     0.888930000000     0.607440000000     0.0333096  
H379     H      0.438940000000     0.888770000000     0.664180000000     0.0330747  
H380     H      0.337920000000     0.888760000000     0.664290000000     0.0333662  
H381     H      0.438820000000     0.985840000000     0.010470000000     0.0325402  
H382     H      0.337790000000     0.985900000000     0.510930000000     0.0331744  
H383     H      0.337850000000     0.042840000000     0.510910000000     0.0331815  
H384     H      0.438870000000     0.042710000000     0.010600000000     0.0325147  
N1       N      0.889300000000     0.389900000000     0.352210000000    -0.189667   
N2       N      0.889800000000     0.389980000000     0.417980000000    -0.189597   
N3       N      0.887650000000     0.387250000000     0.102190000000    -0.189466   
N4       N      0.888180000000     0.387160000000     0.167980000000    -0.189474   
N5       N      0.047080000000     0.388330000000     0.263030000000    -0.189634   
N6       N      0.981140000000     0.388330000000     0.260860000000    -0.189571   
N7       N      0.138860000000     0.389880000000     0.423250000000    -0.189676   
N8       N      0.138360000000     0.389960000000     0.357480000000    -0.189603   
N9       N      0.139970000000     0.387140000000     0.107470000000    -0.18947    
N10      N      0.140510000000     0.387230000000     0.173270000000    -0.189528   
N11      N      0.981080000000     0.388330000000     0.012420000000    -0.189694   
N12      N      0.047020000000     0.388320000000     0.514590000000    -0.189545   
N13      N      0.796780000000     0.388690000000     0.260290000000    -0.190783   
N14      N      0.731320000000     0.388800000000     0.260070000000    -0.19056    
N15      N      0.639720000000     0.481360000000     0.259550000000    -0.189557   
N16      N      0.639510000000     0.547310000000     0.259930000000    -0.18938    
N17      N      0.796740000000     0.389290000000     0.008390000000    -0.194214   
N18      N      0.731260000000     0.389610000000     0.508390000000    -0.190537   
N19      N      0.639100000000     0.481340000000     0.008620000000    -0.191693   
N20      N      0.638900000000     0.547310000000     0.507820000000    -0.189442   
N21      N      0.481130000000     0.640120000000     0.264660000000    -0.189496   
N22      N      0.547090000000     0.639990000000     0.263670000000    -0.189365   
N23      N      0.481000000000     0.639970000000     0.511850000000    -0.189429   
N24      N      0.546960000000     0.640130000000     0.010860000000    -0.191816   
N25      N      0.296900000000     0.389570000000     0.267080000000    -0.190539   
N26      N      0.231420000000     0.389250000000     0.267070000000    -0.190794   
N27      N      0.481070000000     0.389130000000     0.260560000000    -0.189417   
N28      N      0.547030000000     0.389310000000     0.259140000000    -0.18944    
N29      N      0.389030000000     0.481310000000     0.266870000000    -0.189415   
N30      N      0.389220000000     0.547280000000     0.267680000000    -0.189457   
N31      N      0.296840000000     0.388760000000     0.015420000000    -0.192903   
N32      N      0.231380000000     0.388660000000     0.515190000000    -0.19084    
N33      N      0.481130000000     0.389300000000     0.016360000000    -0.191772   
N34      N      0.547090000000     0.389140000000     0.514940000000    -0.18947    
N35      N      0.388420000000     0.481330000000     0.515950000000    -0.189405   
N36      N      0.388610000000     0.547280000000     0.015580000000    -0.191772   
N37      N      0.639450000000     0.797010000000     0.264540000000    -0.19083    
N38      N      0.639350000000     0.731560000000     0.263740000000    -0.190684   
N39      N      0.639520000000     0.796980000000     0.013680000000    -0.194243   
N40      N      0.639650000000     0.731550000000     0.511760000000    -0.190659   
N41      N      0.639780000000     0.888970000000     0.422550000000    -0.189683   
N42      N      0.639600000000     0.888950000000     0.356800000000    -0.189656   
N43      N      0.639650000000     0.888820000000     0.106780000000    -0.189516   
N44      N      0.639820000000     0.888870000000     0.172560000000    -0.189568   
N45      N      0.639050000000     0.231660000000     0.260900000000    -0.190767   
N46      N      0.638620000000     0.297090000000     0.259090000000    -0.190666   
N47      N      0.639780000000     0.047340000000     0.264710000000    -0.189626   
N48      N      0.639830000000     0.981380000000     0.264780000000    -0.189545   
N49      N      0.639120000000     0.231670000000     0.514540000000    -0.190696   
N50      N      0.638950000000     0.297150000000     0.014360000000    -0.192904   
N51      N      0.640920000000     0.140980000000     0.355520000000    -0.18941    
N52      N      0.640930000000     0.140730000000     0.421330000000    -0.189403   
N53      N      0.638130000000     0.138430000000     0.171310000000    -0.189719   
N54      N      0.638160000000     0.138660000000     0.105550000000    -0.189597   
N55      N      0.639820000000     0.047300000000     0.513200000000    -0.189525   
N56      N      0.639860000000     0.981340000000     0.014190000000    -0.18966    
N57      N      0.231400000000     0.638940000000     0.268010000000    -0.190814   
N58      N      0.296870000000     0.638800000000     0.268150000000    -0.190627   
N59      N      0.231290000000     0.639070000000     0.017170000000    -0.19427    
N60      N      0.296750000000     0.639070000000     0.516510000000    -0.190653   
N61      N      0.139510000000     0.639510000000     0.424530000000    -0.189574   
N62      N      0.138830000000     0.639310000000     0.358760000000    -0.18964    
N63      N      0.139290000000     0.639330000000     0.108760000000    -0.189556   
N64      N      0.140080000000     0.639480000000     0.174530000000    -0.189561   
N65      N      0.796800000000     0.639100000000     0.258370000000    -0.190833   
N66      N      0.731340000000     0.639110000000     0.259020000000    -0.190726   
N67      N      0.981160000000     0.639640000000     0.260910000000    -0.189559   
N68      N      0.047050000000     0.639630000000     0.264120000000    -0.189441   
N69      N      0.796700000000     0.638970000000     0.507520000000    -0.190882   
N70      N      0.731220000000     0.638840000000     0.007380000000    -0.192903   
N71      N      0.888580000000     0.639530000000     0.351010000000    -0.189504   
N72      N      0.889260000000     0.639330000000     0.416770000000    -0.189571   
N73      N      0.888010000000     0.639500000000     0.101000000000    -0.189615   
N74      N      0.888800000000     0.639350000000     0.166770000000    -0.189628   
N75      N      0.981040000000     0.639630000000     0.511420000000    -0.189515   
N76      N      0.046930000000     0.639630000000     0.014630000000    -0.189598   
N77      N      0.389050000000     0.231640000000     0.260950000000    -0.190726   
N78      N      0.389230000000     0.297120000000     0.261120000000    -0.190661   
N79      N      0.389110000000     0.231620000000     0.014590000000    -0.194274   
N80      N      0.389550000000     0.297060000000     0.516410000000    -0.190687   
N81      N      0.387230000000     0.140950000000     0.419980000000    -0.189429   
N82      N      0.387220000000     0.140700000000     0.354170000000    -0.189482   
N83      N      0.390020000000     0.138400000000     0.104190000000    -0.189689   
N84      N      0.390000000000     0.138630000000     0.169940000000    -0.189614   
N85      N      0.388430000000     0.731520000000     0.263770000000    -0.190629   
N86      N      0.388560000000     0.796950000000     0.261850000000    -0.190855   
N87      N      0.388260000000     0.981310000000     0.261340000000    -0.189532   
N88      N      0.388320000000     0.047270000000     0.262310000000    -0.189505   
N89      N      0.388640000000     0.796980000000     0.511000000000    -0.19095    
N90      N      0.388730000000     0.731520000000     0.011800000000    -0.193005   
N91      N      0.388510000000     0.888920000000     0.418740000000    -0.189674   
N92      N      0.388330000000     0.888940000000     0.352980000000    -0.189678   
N93      N      0.388290000000     0.888840000000     0.102970000000    -0.189465   
N94      N      0.388460000000     0.888790000000     0.168750000000    -0.189612   
N95      N      0.388300000000     0.981340000000     0.510740000000    -0.189589   
N96      N      0.388360000000     0.047300000000     0.010800000000    -0.189614   
N97      N      0.889300000000     0.389900000000     0.852210000000    -0.189616   
N98      N      0.889800000000     0.389980000000     0.917980000000    -0.189031   
N99      N      0.887650000000     0.387250000000     0.602190000000    -0.189573   
N100     N      0.888180000000     0.387160000000     0.667990000000    -0.189529   
N101     N      0.047080000000     0.388330000000     0.763030000000    -0.189598   
N102     N      0.981140000000     0.388330000000     0.760870000000    -0.189541   
N103     N      0.138860000000     0.389880000000     0.923250000000    -0.18911    
N104     N      0.138360000000     0.389960000000     0.857480000000    -0.189546   
N105     N      0.139970000000     0.387140000000     0.607470000000    -0.189564   
N106     N      0.140510000000     0.387230000000     0.673270000000    -0.189518   
N107     N      0.981080000000     0.388330000000     0.512420000000    -0.189577   
N108     N      0.047020000000     0.388320000000     0.014590000000    -0.189662   
N109     N      0.796780000000     0.388690000000     0.760290000000    -0.190765   
N110     N      0.731320000000     0.388800000000     0.760070000000    -0.19055    
N111     N      0.639720000000     0.481360000000     0.759550000000    -0.189507   
N112     N      0.639510000000     0.547310000000     0.759930000000    -0.1894     
N113     N      0.796740000000     0.389290000000     0.508390000000    -0.190806   
N114     N      0.731260000000     0.389610000000     0.008390000000    -0.192802   
N115     N      0.639100000000     0.481340000000     0.508620000000    -0.189356   
N116     N      0.638900000000     0.547310000000     0.007820000000    -0.191774   
N117     N      0.481130000000     0.640120000000     0.764660000000    -0.189493   
N118     N      0.547090000000     0.639990000000     0.763660000000    -0.189375   
N119     N      0.481000000000     0.639970000000     0.011850000000    -0.191775   
N120     N      0.546960000000     0.640130000000     0.510860000000    -0.189472   
N121     N      0.296900000000     0.389570000000     0.767080000000    -0.190529   
N122     N      0.231420000000     0.389250000000     0.767070000000    -0.190773   
N123     N      0.481070000000     0.389130000000     0.760560000000    -0.189416   
N124     N      0.547030000000     0.389310000000     0.759140000000    -0.189488   
N125     N      0.389030000000     0.481310000000     0.766870000000    -0.189413   
N126     N      0.389220000000     0.547280000000     0.767690000000    -0.189455   
N127     N      0.296840000000     0.388760000000     0.515420000000    -0.190647   
N128     N      0.231380000000     0.388660000000     0.015190000000    -0.194257   
N129     N      0.481130000000     0.389300000000     0.516360000000    -0.189492   
N130     N      0.547090000000     0.389140000000     0.014940000000    -0.191829   
N131     N      0.388420000000     0.481330000000     0.015950000000    -0.191745   
N132     N      0.388610000000     0.547280000000     0.515580000000    -0.18943    
N133     N      0.639450000000     0.797010000000     0.764540000000    -0.190896   
N134     N      0.639350000000     0.731560000000     0.763740000000    -0.190681   
N135     N      0.639520000000     0.796980000000     0.513680000000    -0.190826   
N136     N      0.639650000000     0.731550000000     0.011760000000    -0.192928   
N137     N      0.639780000000     0.888970000000     0.922550000000    -0.189112   
N138     N      0.639600000000     0.888950000000     0.856800000000    -0.189614   
N139     N      0.639650000000     0.888820000000     0.606780000000    -0.189601   
N140     N      0.639820000000     0.888870000000     0.672560000000    -0.189559   
N141     N      0.639050000000     0.231660000000     0.760900000000    -0.190742   
N142     N      0.638620000000     0.297090000000     0.759090000000    -0.190606   
N143     N      0.639780000000     0.047340000000     0.764710000000    -0.18959    
N144     N      0.639830000000     0.981380000000     0.764780000000    -0.189506   
N145     N      0.639120000000     0.231670000000     0.014540000000    -0.194121   
N146     N      0.638950000000     0.297150000000     0.514360000000    -0.190643   
N147     N      0.640920000000     0.140980000000     0.855520000000    -0.189355   
N148     N      0.640930000000     0.140730000000     0.921330000000    -0.18885    
N149     N      0.638130000000     0.138430000000     0.671310000000    -0.18971    
N150     N      0.638160000000     0.138660000000     0.605550000000    -0.189683   
N151     N      0.639820000000     0.047300000000     0.013200000000    -0.189646   
N152     N      0.639860000000     0.981340000000     0.514190000000    -0.189545   
N153     N      0.231400000000     0.638940000000     0.768010000000    -0.190799   
N154     N      0.296870000000     0.638800000000     0.768150000000    -0.190614   
N155     N      0.231290000000     0.639070000000     0.517170000000    -0.190845   
N156     N      0.296750000000     0.639070000000     0.016510000000    -0.192892   
N157     N      0.139510000000     0.639510000000     0.924530000000    -0.189033   
N158     N      0.138830000000     0.639310000000     0.858760000000    -0.189574   
N159     N      0.139290000000     0.639330000000     0.608760000000    -0.189645   
N160     N      0.140080000000     0.639480000000     0.674530000000    -0.189553   
N161     N      0.796800000000     0.639100000000     0.758360000000    -0.190814   
N162     N      0.731340000000     0.639110000000     0.759020000000    -0.190726   
N163     N      0.981160000000     0.639640000000     0.760910000000    -0.189529   
N164     N      0.047050000000     0.639630000000     0.764120000000    -0.189404   
N165     N      0.796700000000     0.638970000000     0.007520000000    -0.19433    
N166     N      0.731220000000     0.638840000000     0.507380000000    -0.190655   
N167     N      0.888580000000     0.639530000000     0.851010000000    -0.189456   
N168     N      0.889260000000     0.639330000000     0.916770000000    -0.188989   
N169     N      0.888010000000     0.639500000000     0.601000000000    -0.189696   
N170     N      0.888800000000     0.639350000000     0.666770000000    -0.18962    
N171     N      0.981040000000     0.639630000000     0.011420000000    -0.189639   
N172     N      0.046930000000     0.639630000000     0.514630000000    -0.189482   
N173     N      0.389050000000     0.231640000000     0.760950000000    -0.190707   
N174     N      0.389230000000     0.297120000000     0.761120000000    -0.190652   
N175     N      0.389110000000     0.231620000000     0.514590000000    -0.19084    
N176     N      0.389550000000     0.297060000000     0.016410000000    -0.192945   
N177     N      0.387230000000     0.140950000000     0.919980000000    -0.188867   
N178     N      0.387220000000     0.140700000000     0.854170000000    -0.189429   
N179     N      0.390020000000     0.138400000000     0.604190000000    -0.18978    
N180     N      0.390000000000     0.138630000000     0.669950000000    -0.189686   
N181     N      0.388430000000     0.731520000000     0.763770000000    -0.190618   
N182     N      0.388570000000     0.796950000000     0.761850000000    -0.190831   
N183     N      0.388260000000     0.981310000000     0.761340000000    -0.189496   
N184     N      0.388320000000     0.047270000000     0.762310000000    -0.189469   
N185     N      0.388640000000     0.796980000000     0.011000000000    -0.194363   
N186     N      0.388730000000     0.731520000000     0.511800000000    -0.190725   
N187     N      0.388510000000     0.888920000000     0.918740000000    -0.189106   
N188     N      0.388330000000     0.888940000000     0.852980000000    -0.189623   
N189     N      0.388290000000     0.888840000000     0.602970000000    -0.189552   
N190     N      0.388460000000     0.888790000000     0.668750000000    -0.189603   
N191     N      0.388300000000     0.981340000000     0.010740000000    -0.18971    
N192     N      0.388360000000     0.047300000000     0.510800000000    -0.189488   
O1       O      0.414660000000     0.889990000000     0.055690000000    -0.555918   
O2       O      0.414810000000     0.888020000000     0.466280000000    -0.554694   
O3       O      0.414660000000     0.933820000000     0.010100000000    -0.556494   
O4       O      0.414820000000     0.844200000000     0.512710000000    -0.555825   
O5       O      0.362160000000     0.844060000000     0.008940000000    -0.555949   
O6       O      0.361990000000     0.933760000000     0.511570000000    -0.555271   
O7       O      0.362140000000     0.889900000000     0.466010000000    -0.557275   
O8       O      0.362000000000     0.887900000000     0.055410000000    -0.553044   
O9       O      0.414670000000     0.890070000000     0.305700000000    -0.557416   
O10      O      0.414760000000     0.887890000000     0.216300000000    -0.554607   
O11      O      0.414630000000     0.933800000000     0.260050000000    -0.556019   
O12      O      0.414810000000     0.844180000000     0.262900000000    -0.555726   
O13      O      0.362150000000     0.844020000000     0.259080000000    -0.554795   
O14      O      0.361960000000     0.933720000000     0.261680000000    -0.555237   
O15      O      0.362100000000     0.889840000000     0.216050000000    -0.556805   
O16      O      0.362010000000     0.887890000000     0.305460000000    -0.554544   
O17      O      0.414100000000     0.139260000000     0.466950000000    -0.557831   
O18      O      0.415800000000     0.139930000000     0.056360000000    -0.552808   
O19      O      0.414820000000     0.094770000000     0.511840000000    -0.556076   
O20      O      0.415090000000     0.184420000000     0.010710000000    -0.557072   
O21      O      0.362510000000     0.184560000000     0.515420000000    -0.554676   
O22      O      0.362130000000     0.094940000000     0.010740000000    -0.554969   
O23      O      0.363160000000     0.137750000000     0.057220000000    -0.5566     
O24      O      0.361470000000     0.141760000000     0.467880000000    -0.552908   
O25      O      0.415760000000     0.140230000000     0.217770000000    -0.554123   
O26      O      0.414060000000     0.138880000000     0.307180000000    -0.557749   
O27      O      0.414770000000     0.094740000000     0.261860000000    -0.556376   
O28      O      0.415050000000     0.184360000000     0.263820000000    -0.556189   
O29      O      0.362470000000     0.184570000000     0.259100000000    -0.554333   
O30      O      0.362090000000     0.094910000000     0.263100000000    -0.554718   
O31      O      0.361440000000     0.141460000000     0.306280000000    -0.552997   
O32      O      0.363110000000     0.138030000000     0.216920000000    -0.55745    
O33      O      0.889120000000     0.613140000000     0.053730000000    -0.556247   
O34      O      0.888420000000     0.613010000000     0.464300000000    -0.554579   
O35      O      0.933600000000     0.613220000000     0.008920000000    -0.556407   
O36      O      0.843950000000     0.612900000000     0.510050000000    -0.555743   
O37      O      0.843760000000     0.665560000000     0.006300000000    -0.555587   
O38      O      0.933420000000     0.665890000000     0.510380000000    -0.55503    
O39      O      0.890210000000     0.665680000000     0.464070000000    -0.557025   
O40      O      0.886970000000     0.665790000000     0.053440000000    -0.552887   
O41      O      0.889520000000     0.613170000000     0.303730000000    -0.557307   
O42      O      0.888200000000     0.613050000000     0.214320000000    -0.555109   
O43      O      0.933700000000     0.613240000000     0.258620000000    -0.556336   
O44      O      0.844050000000     0.612970000000     0.260380000000    -0.555703   
O45      O      0.843870000000     0.665630000000     0.256620000000    -0.55446    
O46      O      0.933550000000     0.665910000000     0.260090000000    -0.554954   
O47      O      0.890020000000     0.665710000000     0.214050000000    -0.556706   
O48      O      0.887380000000     0.665830000000     0.303460000000    -0.553877   
O49      O      0.138570000000     0.613150000000     0.471810000000    -0.557361   
O50      O      0.139890000000     0.613020000000     0.061220000000    -0.553381   
O51      O      0.094390000000     0.613230000000     0.516920000000    -0.556358   
O52      O      0.184040000000     0.612940000000     0.015150000000    -0.556837   
O53      O      0.184230000000     0.665600000000     0.518910000000    -0.554612   
O54      O      0.094550000000     0.665900000000     0.015450000000    -0.555047   
O55      O      0.138070000000     0.665690000000     0.061480000000    -0.555614   
O56      O      0.140710000000     0.665810000000     0.472080000000    -0.553868   
O57      O      0.138970000000     0.613110000000     0.221800000000    -0.557357   
O58      O      0.139670000000     0.612990000000     0.311230000000    -0.554508   
O59      O      0.094490000000     0.613200000000     0.266620000000    -0.556062   
O60      O      0.184140000000     0.612870000000     0.265490000000    -0.555873   
O61      O      0.184340000000     0.665530000000     0.269240000000    -0.554338   
O62      O      0.094680000000     0.665880000000     0.265150000000    -0.554816   
O63      O      0.137890000000     0.665660000000     0.311470000000    -0.556777   
O64      O      0.141130000000     0.665770000000     0.222090000000    -0.553947   
O65      O      0.612390000000     0.140270000000     0.057730000000    -0.552761   
O66      O      0.614090000000     0.138910000000     0.468320000000    -0.557621   
O67      O      0.613370000000     0.094770000000     0.013640000000    -0.556346   
O68      O      0.613110000000     0.184400000000     0.511670000000    -0.555899   
O69      O      0.665690000000     0.184600000000     0.016390000000    -0.554509   
O70      O      0.666050000000     0.094930000000     0.512410000000    -0.554792   
O71      O      0.666720000000     0.141490000000     0.469220000000    -0.552767   
O72      O      0.665040000000     0.138060000000     0.058580000000    -0.556277   
O73      O      0.614050000000     0.139300000000     0.308550000000    -0.557846   
O74      O      0.612350000000     0.139970000000     0.219130000000    -0.553834   
O75      O      0.613330000000     0.094810000000     0.263660000000    -0.556234   
O76      O      0.613070000000     0.184460000000     0.264790000000    -0.555864   
O77      O      0.665650000000     0.184580000000     0.260070000000    -0.554642   
O78      O      0.666010000000     0.094970000000     0.264760000000    -0.555156   
O79      O      0.665000000000     0.137780000000     0.218280000000    -0.557742   
O80      O      0.666680000000     0.141790000000     0.307620000000    -0.552953   
O81      O      0.613440000000     0.890100000000     0.469840000000    -0.557352   
O82      O      0.613350000000     0.887930000000     0.059240000000    -0.553478   
O83      O      0.613490000000     0.933830000000     0.515490000000    -0.556254   
O84      O      0.613290000000     0.844210000000     0.012630000000    -0.556726   
O85      O      0.665950000000     0.844050000000     0.516450000000    -0.554774   
O86      O      0.666160000000     0.933740000000     0.013850000000    -0.555255   
O87      O      0.666010000000     0.889870000000     0.059490000000    -0.555657   
O88      O      0.666100000000     0.887910000000     0.470080000000    -0.554252   
O89      O      0.613450000000     0.890020000000     0.219850000000    -0.55709    
O90      O      0.613300000000     0.888060000000     0.309260000000    -0.55464    
O91      O      0.613450000000     0.933860000000     0.265430000000    -0.556147   
O92      O      0.613280000000     0.844240000000     0.262830000000    -0.555882   
O93      O      0.665940000000     0.844090000000     0.266600000000    -0.554718   
O94      O      0.666130000000     0.933780000000     0.263960000000    -0.555142   
O95      O      0.665970000000     0.889930000000     0.309530000000    -0.557043   
O96      O      0.666110000000     0.887930000000     0.220120000000    -0.554149   
O97      O      0.390400000000     0.433990000000     0.042390000000    -0.551921   
O98      O      0.385830000000     0.344330000000     0.042550000000    -0.548797   
O99      O      0.433460000000     0.387280000000     0.042800000000    -0.547472   
O100     O      0.343700000000     0.391910000000     0.042020000000    -0.550857   
O101     O      0.344320000000     0.385590000000     0.489770000000    -0.555571   
O102     O      0.433670000000     0.391210000000     0.490400000000    -0.56031    
O103     O      0.392280000000     0.344100000000     0.490310000000    -0.557819   
O104     O      0.386690000000     0.433560000000     0.489970000000    -0.555491   
O105     O      0.387600000000     0.432910000000     0.291800000000    -0.552554   
O106     O      0.392850000000     0.343420000000     0.288450000000    -0.556185   
O107     O      0.434530000000     0.390420000000     0.288380000000    -0.556072   
O108     O      0.345000000000     0.385080000000     0.291620000000    -0.551768   
O109     O      0.343110000000     0.393020000000     0.239620000000    -0.556832   
O110     O      0.432540000000     0.387630000000     0.235940000000    -0.55341    
O111     O      0.384680000000     0.345130000000     0.236480000000    -0.552417   
O112     O      0.390140000000     0.434620000000     0.239350000000    -0.557134   
O113     O      0.390010000000     0.594260000000     0.488660000000    -0.557881   
O114     O      0.384870000000     0.683690000000     0.486880000000    -0.554343   
O115     O      0.432720000000     0.641080000000     0.486630000000    -0.552897   
O116     O      0.343120000000     0.635940000000     0.489160000000    -0.555358   
O117     O      0.344680000000     0.643060000000     0.041290000000    -0.551016   
O118     O      0.434180000000     0.638350000000     0.039090000000    -0.554617   
O119     O      0.392240000000     0.685070000000     0.038980000000    -0.552242   
O120     O      0.387540000000     0.595410000000     0.041140000000    -0.549939   
O121     O      0.390690000000     0.594370000000     0.241110000000    -0.560835   
O122     O      0.384880000000     0.683600000000     0.239090000000    -0.556388   
O123     O      0.432980000000     0.641370000000     0.239270000000    -0.554543   
O124     O      0.343450000000     0.635640000000     0.241200000000    -0.556646   
O125     O      0.344600000000     0.642970000000     0.293310000000    -0.55184    
O126     O      0.434170000000     0.638450000000     0.291720000000    -0.555193   
O127     O      0.392080000000     0.685150000000     0.291210000000    -0.552352   
O128     O      0.387540000000     0.595330000000     0.293550000000    -0.548908   
O129     O      0.595620000000     0.387650000000     0.039550000000    -0.551078   
O130     O      0.685060000000     0.393060000000     0.035860000000    -0.554468   
O131     O      0.638010000000     0.434640000000     0.036150000000    -0.554785   
O132     O      0.643490000000     0.345160000000     0.039000000000    -0.550207   
O133     O      0.635320000000     0.343450000000     0.487030000000    -0.555859   
O134     O      0.640550000000     0.432950000000     0.483690000000    -0.552514   
O135     O      0.683160000000     0.385120000000     0.483860000000    -0.55176    
O136     O      0.593630000000     0.390440000000     0.487120000000    -0.556115   
O137     O      0.594490000000     0.391230000000     0.285100000000    -0.560221   
O138     O      0.683840000000     0.385630000000     0.285730000000    -0.555376   
O139     O      0.641460000000     0.433600000000     0.285530000000    -0.555228   
O140     O      0.635890000000     0.344130000000     0.285180000000    -0.55776    
O141     O      0.642330000000     0.344370000000     0.232940000000    -0.551145   
O142     O      0.637760000000     0.434020000000     0.233110000000    -0.554562   
O143     O      0.684460000000     0.391950000000     0.233470000000    -0.553267   
O144     O      0.594700000000     0.387300000000     0.232700000000    -0.549842   
O145     O      0.637420000000     0.594400000000     0.034410000000    -0.558616   
O146     O      0.643200000000     0.683630000000     0.036440000000    -0.553888   
O147     O      0.595110000000     0.641390000000     0.036250000000    -0.552075   
O148     O      0.684640000000     0.635680000000     0.034330000000    -0.554297   
O149     O      0.683490000000     0.643010000000     0.482220000000    -0.552139   
O150     O      0.593920000000     0.638470000000     0.483800000000    -0.554997   
O151     O      0.636000000000     0.685180000000     0.484320000000    -0.552318   
O152     O      0.640560000000     0.595360000000     0.481970000000    -0.549029   
O153     O      0.638090000000     0.594290000000     0.286860000000    -0.558065   
O154     O      0.643210000000     0.683710000000     0.288650000000    -0.554289   
O155     O      0.595380000000     0.641100000000     0.288890000000    -0.552928   
O156     O      0.684980000000     0.635980000000     0.286370000000    -0.555249   
O157     O      0.683410000000     0.643100000000     0.234240000000    -0.553422   
O158     O      0.593920000000     0.638380000000     0.236430000000    -0.556879   
O159     O      0.635850000000     0.685110000000     0.236550000000    -0.554609   
O160     O      0.640560000000     0.595440000000     0.234380000000    -0.552034   
O161     O      0.138270000000     0.413950000000     0.060480000000    -0.556541   
O162     O      0.140430000000     0.415620000000     0.471090000000    -0.554003   
O163     O      0.094540000000     0.414720000000     0.014750000000    -0.556013   
O164     O      0.184170000000     0.414830000000     0.517620000000    -0.555543   
O165     O      0.184270000000     0.362260000000     0.012830000000    -0.556068   
O166     O      0.094600000000     0.362040000000     0.516020000000    -0.555143   
O167     O      0.138090000000     0.362990000000     0.470220000000    -0.557607   
O168     O      0.140800000000     0.361330000000     0.059610000000    -0.552044   
O169     O      0.139690000000     0.415780000000     0.309660000000    -0.554045   
O170     O      0.138940000000     0.414110000000     0.220240000000    -0.557707   
O171     O      0.094500000000     0.414770000000     0.265110000000    -0.556769   
O172     O      0.184120000000     0.415150000000     0.263940000000    -0.556272   
O173     O      0.184380000000     0.362570000000     0.268650000000    -0.553728   
O174     O      0.094730000000     0.362100000000     0.263870000000    -0.55458    
O175     O      0.141570000000     0.361490000000     0.221150000000    -0.553062   
O176     O      0.137540000000     0.363130000000     0.310480000000    -0.557378   
O177     O      0.888470000000     0.415800000000     0.465800000000    -0.55408    
O178     O      0.889230000000     0.414130000000     0.055220000000    -0.556393   
O179     O      0.933670000000     0.414790000000     0.510340000000    -0.55655    
O180     O      0.844050000000     0.415180000000     0.011520000000    -0.556606   
O181     O      0.843770000000     0.362600000000     0.506810000000    -0.553601   
O182     O      0.933430000000     0.362110000000     0.011590000000    -0.554499   
O183     O      0.886590000000     0.361510000000     0.054310000000    -0.551832   
O184     O      0.890620000000     0.363150000000     0.464980000000    -0.557373   
O185     O      0.889890000000     0.413970000000     0.214980000000    -0.557998   
O186     O      0.887730000000     0.415640000000     0.304360000000    -0.554095   
O187     O      0.933630000000     0.414730000000     0.260700000000    -0.555851   
O188     O      0.843990000000     0.414860000000     0.257840000000    -0.555466   
O189     O      0.843880000000     0.362280000000     0.262630000000    -0.554631   
O190     O      0.933550000000     0.362050000000     0.259430000000    -0.555199   
O191     O      0.890070000000     0.363010000000     0.305240000000    -0.55752    
O192     O      0.887350000000     0.361350000000     0.215840000000    -0.553089   
O193     O      0.414660000000     0.889990000000     0.555690000000    -0.557217   
O194     O      0.414810000000     0.888020000000     0.966280000000    -0.54895    
O195     O      0.414660000000     0.933820000000     0.510100000000    -0.556437   
O196     O      0.414820000000     0.844200000000     0.012710000000    -0.556124   
O197     O      0.362160000000     0.844060000000     0.508940000000    -0.55482    
O198     O      0.361990000000     0.933760000000     0.011570000000    -0.555279   
O199     O      0.362140000000     0.889900000000     0.966010000000    -0.551527   
O200     O      0.362000000000     0.887900000000     0.555410000000    -0.55423    
O201     O      0.414670000000     0.890070000000     0.805700000000    -0.557286   
O202     O      0.414760000000     0.887890000000     0.716300000000    -0.554625   
O203     O      0.414630000000     0.933800000000     0.760050000000    -0.555961   
O204     O      0.414810000000     0.844180000000     0.762910000000    -0.555674   
O205     O      0.362150000000     0.844020000000     0.759080000000    -0.55473    
O206     O      0.361960000000     0.933720000000     0.761680000000    -0.555135   
O207     O      0.362100000000     0.889840000000     0.716050000000    -0.556776   
O208     O      0.362010000000     0.887890000000     0.805460000000    -0.5544     
O209     O      0.414100000000     0.139260000000     0.966950000000    -0.552197   
O210     O      0.415800000000     0.139930000000     0.556370000000    -0.553926   
O211     O      0.414820000000     0.094770000000     0.011840000000    -0.556092   
O212     O      0.415090000000     0.184420000000     0.510700000000    -0.555838   
O213     O      0.362510000000     0.184560000000     0.015420000000    -0.554973   
O214     O      0.362130000000     0.094940000000     0.510740000000    -0.554863   
O215     O      0.363160000000     0.137750000000     0.557220000000    -0.55789    
O216     O      0.361470000000     0.141760000000     0.967880000000    -0.547148   
O217     O      0.415760000000     0.140230000000     0.717770000000    -0.554043   
O218     O      0.414060000000     0.138880000000     0.807180000000    -0.557638   
O219     O      0.414770000000     0.094740000000     0.761860000000    -0.556313   
O220     O      0.415050000000     0.184360000000     0.763820000000    -0.556162   
O221     O      0.362470000000     0.184570000000     0.759100000000    -0.554278   
O222     O      0.362090000000     0.094910000000     0.763100000000    -0.55462    
O223     O      0.361440000000     0.141460000000     0.806280000000    -0.55286    
O224     O      0.363110000000     0.138030000000     0.716920000000    -0.557572   
O225     O      0.889120000000     0.613140000000     0.553730000000    -0.557347   
O226     O      0.888420000000     0.613010000000     0.964310000000    -0.548808   
O227     O      0.933600000000     0.613220000000     0.508910000000    -0.556288   
O228     O      0.843950000000     0.612900000000     0.010050000000    -0.556055   
O229     O      0.843760000000     0.665560000000     0.506290000000    -0.554446   
O230     O      0.933420000000     0.665890000000     0.010390000000    -0.555041   
O231     O      0.890210000000     0.665680000000     0.964070000000    -0.551258   
O232     O      0.886970000000     0.665790000000     0.553440000000    -0.554093   
O233     O      0.889520000000     0.613170000000     0.803730000000    -0.5572     
O234     O      0.888200000000     0.613050000000     0.714320000000    -0.555114   
O235     O      0.933700000000     0.613240000000     0.758620000000    -0.55628    
O236     O      0.844050000000     0.612970000000     0.760380000000    -0.555676   
O237     O      0.843870000000     0.665630000000     0.756620000000    -0.554398   
O238     O      0.933550000000     0.665910000000     0.760090000000    -0.554856   
O239     O      0.890020000000     0.665710000000     0.714050000000    -0.556669   
O240     O      0.887380000000     0.665830000000     0.803460000000    -0.553744   
O241     O      0.138570000000     0.613150000000     0.971810000000    -0.551619   
O242     O      0.139890000000     0.613020000000     0.561220000000    -0.554631   
O243     O      0.094390000000     0.613230000000     0.016920000000    -0.55631    
O244     O      0.184040000000     0.612940000000     0.515150000000    -0.555726   
O245     O      0.184230000000     0.665600000000     0.018910000000    -0.554898   
O246     O      0.094550000000     0.665900000000     0.515450000000    -0.554962   
O247     O      0.138070000000     0.665690000000     0.561480000000    -0.556857   
O248     O      0.140710000000     0.665810000000     0.972080000000    -0.548084   
O249     O      0.138970000000     0.613110000000     0.721800000000    -0.557361   
O250     O      0.139670000000     0.612990000000     0.811230000000    -0.554401   
O251     O      0.094490000000     0.613200000000     0.766620000000    -0.555996   
O252     O      0.184140000000     0.612870000000     0.765490000000    -0.555832   
O253     O      0.184340000000     0.665530000000     0.769240000000    -0.554284   
O254     O      0.094680000000     0.665880000000     0.765150000000    -0.554716   
O255     O      0.137890000000     0.665660000000     0.811470000000    -0.55663    
O256     O      0.141130000000     0.665770000000     0.722090000000    -0.55391    
O257     O      0.612390000000     0.140270000000     0.557730000000    -0.553989   
O258     O      0.614090000000     0.138910000000     0.968320000000    -0.551913   
O259     O      0.613370000000     0.094770000000     0.513640000000    -0.556374   
O260     O      0.613110000000     0.184400000000     0.011670000000    -0.557071   
O261     O      0.665690000000     0.184600000000     0.516390000000    -0.554231   
O262     O      0.666050000000     0.094930000000     0.012410000000    -0.554899   
O263     O      0.666720000000     0.141490000000     0.969220000000    -0.546995   
O264     O      0.665040000000     0.138060000000     0.558580000000    -0.557527   
O265     O      0.614050000000     0.139300000000     0.808550000000    -0.557739   
O266     O      0.612350000000     0.139970000000     0.719130000000    -0.55383    
O267     O      0.613330000000     0.094810000000     0.763660000000    -0.556182   
O268     O      0.613070000000     0.184460000000     0.764790000000    -0.555835   
O269     O      0.665650000000     0.184580000000     0.760070000000    -0.554572   
O270     O      0.666010000000     0.094970000000     0.764760000000    -0.555056   
O271     O      0.665000000000     0.137780000000     0.718280000000    -0.557719   
O272     O      0.666680000000     0.141790000000     0.807620000000    -0.552805   
O273     O      0.613440000000     0.890100000000     0.969840000000    -0.551623   
O274     O      0.613350000000     0.887920000000     0.559240000000    -0.55471    
O275     O      0.613490000000     0.933830000000     0.015490000000    -0.556202   
O276     O      0.613290000000     0.844210000000     0.512630000000    -0.555484   
O277     O      0.665950000000     0.844050000000     0.016450000000    -0.554957   
O278     O      0.666160000000     0.933740000000     0.513850000000    -0.555194   
O279     O      0.666010000000     0.889870000000     0.559490000000    -0.556899   
O280     O      0.666100000000     0.887920000000     0.970080000000    -0.54847    
O281     O      0.613450000000     0.890020000000     0.719850000000    -0.557112   
O282     O      0.613300000000     0.888060000000     0.809260000000    -0.554515   
O283     O      0.613450000000     0.933860000000     0.765440000000    -0.556073   
O284     O      0.613280000000     0.844240000000     0.762830000000    -0.555764   
O285     O      0.665940000000     0.844090000000     0.766600000000    -0.554574   
O286     O      0.666130000000     0.933780000000     0.763960000000    -0.555041   
O287     O      0.665970000000     0.889930000000     0.809530000000    -0.556891   
O288     O      0.666110000000     0.887930000000     0.720120000000    -0.554121   
O289     O      0.390400000000     0.433990000000     0.542390000000    -0.554223   
O290     O      0.385830000000     0.344330000000     0.542550000000    -0.551111   
O291     O      0.433460000000     0.387280000000     0.542790000000    -0.549962   
O292     O      0.343700000000     0.391910000000     0.542020000000    -0.553273   
O293     O      0.344320000000     0.385590000000     0.989770000000    -0.549552   
O294     O      0.433670000000     0.391210000000     0.990400000000    -0.554412   
O295     O      0.392280000000     0.344100000000     0.990310000000    -0.551926   
O296     O      0.386690000000     0.433560000000     0.989970000000    -0.549441   
O297     O      0.387600000000     0.432910000000     0.791800000000    -0.552514   
O298     O      0.392850000000     0.343420000000     0.788450000000    -0.556014   
O299     O      0.434530000000     0.390420000000     0.788380000000    -0.556051   
O300     O      0.345000000000     0.385080000000     0.791620000000    -0.551696   
O301     O      0.343110000000     0.393020000000     0.739620000000    -0.556824   
O302     O      0.432540000000     0.387630000000     0.735940000000    -0.553413   
O303     O      0.384680000000     0.345130000000     0.736480000000    -0.552513   
O304     O      0.390140000000     0.434620000000     0.739350000000    -0.557142   
O305     O      0.390010000000     0.594260000000     0.988660000000    -0.552068   
O306     O      0.384870000000     0.683690000000     0.986880000000    -0.548354   
O307     O      0.432720000000     0.641080000000     0.986630000000    -0.546975   
O308     O      0.343120000000     0.635940000000     0.989160000000    -0.549473   
O309     O      0.344680000000     0.643060000000     0.541290000000    -0.553353   
O310     O      0.434180000000     0.638350000000     0.539090000000    -0.557039   
O311     O      0.392240000000     0.685070000000     0.538980000000    -0.554658   
O312     O      0.387540000000     0.595410000000     0.541140000000    -0.552249   
O313     O      0.390690000000     0.594370000000     0.741110000000    -0.560837   
O314     O      0.384880000000     0.683600000000     0.739090000000    -0.556378   
O315     O      0.432980000000     0.641370000000     0.739270000000    -0.554545   
O316     O      0.343450000000     0.635640000000     0.741200000000    -0.55663    
O317     O      0.344600000000     0.642970000000     0.793310000000    -0.55178    
O318     O      0.434170000000     0.638450000000     0.791720000000    -0.555166   
O319     O      0.392080000000     0.685150000000     0.791210000000    -0.552288   
O320     O      0.387540000000     0.595330000000     0.793550000000    -0.548876   
O321     O      0.595620000000     0.387650000000     0.539550000000    -0.553392   
O322     O      0.685060000000     0.393060000000     0.535860000000    -0.556898   
O323     O      0.638010000000     0.434640000000     0.536150000000    -0.55708    
O324     O      0.643490000000     0.345160000000     0.539000000000    -0.552517   
O325     O      0.635320000000     0.343450000000     0.987030000000    -0.549986   
O326     O      0.640550000000     0.432950000000     0.983690000000    -0.546484   
O327     O      0.683160000000     0.385120000000     0.983860000000    -0.545763   
O328     O      0.593630000000     0.390440000000     0.987120000000    -0.550307   
O329     O      0.594490000000     0.391230000000     0.785100000000    -0.560284   
O330     O      0.683840000000     0.385630000000     0.785730000000    -0.555313   
O331     O      0.641460000000     0.433590000000     0.785530000000    -0.555388   
O332     O      0.635890000000     0.344130000000     0.785190000000    -0.557536   
O333     O      0.642330000000     0.344370000000     0.732940000000    -0.550998   
O334     O      0.637760000000     0.434020000000     0.733110000000    -0.554359   
O335     O      0.684460000000     0.391950000000     0.733470000000    -0.553204   
O336     O      0.594700000000     0.387300000000     0.732710000000    -0.549974   
O337     O      0.637420000000     0.594400000000     0.534410000000    -0.560939   
O338     O      0.643200000000     0.683630000000     0.536440000000    -0.556233   
O339     O      0.595110000000     0.641390000000     0.536250000000    -0.554382   
O340     O      0.684640000000     0.635680000000     0.534330000000    -0.556728   
O341     O      0.683490000000     0.643010000000     0.982220000000    -0.54615    
O342     O      0.593920000000     0.638470000000     0.983800000000    -0.549194   
O343     O      0.636000000000     0.685180000000     0.984320000000    -0.546443   
O344     O      0.640560000000     0.595360000000     0.981970000000    -0.543003   
O345     O      0.638090000000     0.594290000000     0.786860000000    -0.558082   
O346     O      0.643210000000     0.683710000000     0.788650000000    -0.554282   
O347     O      0.595380000000     0.641100000000     0.788890000000    -0.552959   
O348     O      0.684980000000     0.635980000000     0.786370000000    -0.555227   
O349     O      0.683410000000     0.643100000000     0.734240000000    -0.553452   
O350     O      0.593920000000     0.638380000000     0.736430000000    -0.556914   
O351     O      0.635850000000     0.685110000000     0.736550000000    -0.554633   
O352     O      0.640560000000     0.595440000000     0.734380000000    -0.552076   
O353     O      0.138270000000     0.413950000000     0.560480000000    -0.55801    
O354     O      0.140430000000     0.415620000000     0.971090000000    -0.548403   
O355     O      0.094540000000     0.414720000000     0.514750000000    -0.555965   
O356     O      0.184170000000     0.414830000000     0.017620000000    -0.555812   
O357     O      0.184270000000     0.362260000000     0.512830000000    -0.554941   
O358     O      0.094600000000     0.362040000000     0.016020000000    -0.555146   
O359     O      0.138090000000     0.362990000000     0.970220000000    -0.551864   
O360     O      0.140800000000     0.361330000000     0.559610000000    -0.553244   
O361     O      0.139690000000     0.415780000000     0.809660000000    -0.55393    
O362     O      0.138940000000     0.414110000000     0.720240000000    -0.557721   
O363     O      0.094500000000     0.414770000000     0.765110000000    -0.556711   
O364     O      0.184120000000     0.415150000000     0.763940000000    -0.556235   
O365     O      0.184380000000     0.362570000000     0.768650000000    -0.553663   
O366     O      0.094730000000     0.362100000000     0.763870000000    -0.554486   
O367     O      0.141570000000     0.361490000000     0.721150000000    -0.553022   
O368     O      0.137540000000     0.363130000000     0.810480000000    -0.557233   
O369     O      0.888470000000     0.415800000000     0.965790000000    -0.548189   
O370     O      0.889230000000     0.414130000000     0.555220000000    -0.557758   
O371     O      0.933670000000     0.414790000000     0.010340000000    -0.556574   
O372     O      0.844050000000     0.415180000000     0.511520000000    -0.556408   
O373     O      0.843770000000     0.362600000000     0.006810000000    -0.554749   
O374     O      0.933430000000     0.362110000000     0.511590000000    -0.554478   
O375     O      0.886590000000     0.361510000000     0.554310000000    -0.553013   
O376     O      0.890620000000     0.363150000000     0.964980000000    -0.551664   
O377     O      0.889890000000     0.413970000000     0.714980000000    -0.558007   
O378     O      0.887730000000     0.415640000000     0.804360000000    -0.553977   
O379     O      0.933630000000     0.414730000000     0.760700000000    -0.555792   
O380     O      0.843990000000     0.414860000000     0.757840000000    -0.555426   
O381     O      0.843880000000     0.362280000000     0.762630000000    -0.554613   
O382     O      0.933550000000     0.362050000000     0.759440000000    -0.555157   
O383     O      0.890070000000     0.363010000000     0.805240000000    -0.557425   
O384     O      0.887350000000     0.361350000000     0.715850000000    -0.553225   
V1       V      0.416840000000     0.889010000000     0.011120000000     1.38773    
V2       V      0.359960000000     0.888900000000     0.510560000000     1.39435    
V3       V      0.416820000000     0.888980000000     0.261140000000     1.39478    
V4       V      0.359940000000     0.888860000000     0.260630000000     1.39404    
V5       V      0.417060000000     0.139590000000     0.511480000000     1.39467    
V6       V      0.360200000000     0.139770000000     0.012760000000     1.38602    
V7       V      0.417010000000     0.139550000000     0.262640000000     1.39538    
V8       V      0.360160000000     0.139760000000     0.261400000000     1.39264    
V9       V      0.888780000000     0.610970000000     0.009160000000     1.38823    
V10      V      0.888580000000     0.667840000000     0.508610000000     1.39363    
V11      V      0.888880000000     0.611010000000     0.259160000000     1.39531    
V12      V      0.888700000000     0.667880000000     0.258620000000     1.39297    
V13      V      0.139210000000     0.610990000000     0.516370000000     1.39505    
V14      V      0.139400000000     0.667860000000     0.016920000000     1.38617    
V15      V      0.139310000000     0.610950000000     0.266380000000     1.39507    
V16      V      0.139520000000     0.667820000000     0.266920000000     1.39305    
V17      V      0.611140000000     0.139580000000     0.012860000000     1.38765    
V18      V      0.667990000000     0.139780000000     0.514100000000     1.39255    
V19      V      0.611090000000     0.139630000000     0.264020000000     1.39471    
V20      V      0.667950000000     0.139790000000     0.262740000000     1.39354    
V21      V      0.611290000000     0.889020000000     0.514400000000     1.39448    
V22      V      0.668160000000     0.888890000000     0.014910000000     1.38692    
V23      V      0.611270000000     0.889050000000     0.264420000000     1.39466    
V24      V      0.668140000000     0.888930000000     0.264970000000     1.39405    
V25      V      0.388400000000     0.389290000000     0.044620000000     1.37184    
V26      V      0.389160000000     0.388680000000     0.487980000000     1.40268    
V27      V      0.389990000000     0.387930000000     0.292230000000     1.38977    
V28      V      0.387590000000     0.390090000000     0.235690000000     1.39322    
V29      V      0.387700000000     0.638790000000     0.485680000000     1.39374    
V30      V      0.389630000000     0.640440000000     0.042290000000     1.38084    
V31      V      0.388030000000     0.638790000000     0.238030000000     1.40212    
V32      V      0.389560000000     0.640460000000     0.294630000000     1.38122    
V33      V      0.640580000000     0.390120000000     0.039800000000     1.38392    
V34      V      0.638170000000     0.387970000000     0.483260000000     1.38949    
V35      V      0.639000000000     0.388710000000     0.287520000000     1.40245    
V36      V      0.639760000000     0.389330000000     0.230870000000     1.38164    
V37      V      0.640070000000     0.638810000000     0.037490000000     1.39291    
V38      V      0.638540000000     0.640490000000     0.480890000000     1.38112    
V39      V      0.640390000000     0.638810000000     0.289840000000     1.39399    
V40      V      0.638470000000     0.640480000000     0.233240000000     1.3899     
V41      V      0.139350000000     0.416890000000     0.015960000000     1.38717    
V42      V      0.139450000000     0.360040000000     0.514720000000     1.39395    
V43      V      0.139300000000     0.417050000000     0.264780000000     1.39584    
V44      V      0.139570000000     0.360210000000     0.266010000000     1.39189    
V45      V      0.888860000000     0.417080000000     0.510680000000     1.39587    
V46      V      0.888590000000     0.360230000000     0.009450000000     1.38446    
V47      V      0.888810000000     0.416910000000     0.259490000000     1.39436    
V48      V      0.888710000000     0.360060000000     0.260740000000     1.39348    
V49      V      0.416840000000     0.889010000000     0.511120000000     1.39483    
V50      V      0.359960000000     0.888900000000     0.010560000000     1.38694    
V51      V      0.416820000000     0.888980000000     0.761140000000     1.39472    
V52      V      0.359940000000     0.888860000000     0.760630000000     1.39435    
V53      V      0.417060000000     0.139590000000     0.011480000000     1.38772    
V54      V      0.360200000000     0.139770000000     0.512760000000     1.39333    
V55      V      0.417010000000     0.139550000000     0.762640000000     1.3953     
V56      V      0.360160000000     0.139760000000     0.761400000000     1.393      
V57      V      0.888780000000     0.610970000000     0.509150000000     1.39492    
V58      V      0.888580000000     0.667840000000     0.008610000000     1.38613    
V59      V      0.888880000000     0.611010000000     0.759160000000     1.39528    
V60      V      0.888700000000     0.667880000000     0.758620000000     1.39327    
V61      V      0.139210000000     0.610990000000     0.016370000000     1.38789    
V62      V      0.139400000000     0.667860000000     0.516920000000     1.3934     
V63      V      0.139310000000     0.610950000000     0.766380000000     1.39504    
V64      V      0.139520000000     0.667820000000     0.766920000000     1.39336    
V65      V      0.611140000000     0.139580000000     0.512860000000     1.39491    
V66      V      0.667990000000     0.139780000000     0.014100000000     1.38532    
V67      V      0.611090000000     0.139630000000     0.764020000000     1.39468    
V68      V      0.667950000000     0.139790000000     0.762740000000     1.39385    
V69      V      0.611290000000     0.889020000000     0.014400000000     1.3874     
V70      V      0.668160000000     0.888890000000     0.514910000000     1.39422    
V71      V      0.611270000000     0.889050000000     0.764420000000     1.39462    
V72      V      0.668140000000     0.888930000000     0.764970000000     1.39436    
V73      V      0.388400000000     0.389290000000     0.544620000000     1.38113    
V74      V      0.389160000000     0.388680000000     0.987980000000     1.40712    
V75      V      0.389990000000     0.387930000000     0.792230000000     1.38984    
V76      V      0.387590000000     0.390090000000     0.735690000000     1.39318    
V77      V      0.387700000000     0.638790000000     0.985680000000     1.3983     
V78      V      0.389630000000     0.640440000000     0.542290000000     1.39015    
V79      V      0.388030000000     0.638790000000     0.738030000000     1.40201    
V80      V      0.389560000000     0.640460000000     0.794630000000     1.38135    
V81      V      0.640580000000     0.390120000000     0.539800000000     1.3932     
V82      V      0.638170000000     0.387970000000     0.983260000000     1.39402    
V83      V      0.639000000000     0.388710000000     0.787520000000     1.4027     
V84      V      0.639760000000     0.389330000000     0.730880000000     1.38133    
V85      V      0.640070000000     0.638810000000     0.537490000000     1.40222    
V86      V      0.638540000000     0.640490000000     0.980890000000     1.38566    
V87      V      0.640390000000     0.638810000000     0.789850000000     1.39424    
V88      V      0.638470000000     0.640480000000     0.733240000000     1.39003    
V89      V      0.139350000000     0.416890000000     0.515970000000     1.39425    
V90      V      0.139450000000     0.360040000000     0.014720000000     1.38657    
V91      V      0.139300000000     0.417050000000     0.764780000000     1.39581    
V92      V      0.139570000000     0.360210000000     0.766010000000     1.3922     
V93      V      0.888860000000     0.417080000000     0.010680000000     1.38858    
V94      V      0.888590000000     0.360230000000     0.509450000000     1.39184    
V95      V      0.888810000000     0.416910000000     0.759490000000     1.39426    
V96      V      0.888710000000     0.360060000000     0.760740000000     1.39412    


