data_structure

_audit_creation_method RASPA-1.0
_audit_creation_date 2023-5-19
_audit_author_name 'Poobodin Mano'

_cell_length_a    42.2514
_cell_length_b    42.248
_cell_length_c    42.2253
_cell_angle_alpha 90
_cell_angle_beta  90
_cell_angle_gamma 90
_cell_volume      75373.7

_symmetry_cell_setting          triclinic
_symmetry_space_group_name_Hall 'P 1'
_symmetry_space_group_name_H-M  'P 1'
_symmetry_Int_Tables_number     1

_symmetry_equiv_pos_as_xyz 'x,y,z'

loop_
_atom_site_label
_atom_site_type_symbol
_atom_site_fract_x
_atom_site_fract_y
_atom_site_fract_z
_atom_site_charge
C1       C      0.002950000000     0.443390000000     0.255220000000     0.474377   
C2       C      0.004500000000     0.063320000000     0.253830000000     0.473127   
C3       C      0.063840000000     0.002490000000     0.255400000000     0.47374    
C4       C      0.443950000000     0.004140000000     0.253850000000     0.47431    
C5       C      0.003060000000     0.193700000000     0.253250000000     0.467765   
C6       C      0.001280000000     0.313140000000     0.256360000000     0.468322   
C7       C      0.500240000000     0.255460000000     0.195490000000     0.467364   
C8       C      0.503820000000     0.251680000000     0.315180000000     0.472461   
C9       C      0.313580000000     0.005060000000     0.252800000000     0.46559    
C10      C      0.194120000000     0.002480000000     0.256260000000     0.467944   
C11      C      0.251260000000     0.504740000000     0.194190000000     0.473283   
C12      C      0.256530000000     0.502540000000     0.313760000000     0.472863   
C13      C      0.248460000000     0.005320000000     0.063840000000     0.475166   
C14      C      0.254610000000     0.001670000000     0.444230000000     0.463037   
C15      C      0.252130000000     0.063430000000     0.501540000000     0.473603   
C16      C      0.251180000000     0.443710000000     0.507190000000     0.477055   
C17      C      0.998660000000     0.257340000000     0.065160000000     0.48714    
C18      C      0.005260000000     0.251990000000     0.445640000000     0.477649   
C19      C      0.062050000000     0.255180000000     0.508290000000     0.471843   
C20      C      0.442350000000     0.254310000000     0.502170000000     0.473184   
C21      C      0.252720000000     0.193630000000     0.500830000000     0.480549   
C22      C      0.251710000000     0.313320000000     0.506630000000     0.470497   
C23      C      0.192350000000     0.253890000000     0.006700000000     0.469503   
C24      C      0.312050000000     0.254170000000     0.001120000000     0.460257   
C25      C      0.393460000000     0.232030000000     0.017470000000     0.0274433  
C26      C      0.394250000000     0.276460000000     0.483590000000    -0.00197895 
C27      C      0.360570000000     0.233450000000     0.018470000000     0.0219182  
C28      C      0.360950000000     0.276100000000     0.481930000000     0.109683   
C29      C      0.344520000000     0.300970000000     0.462090000000    -0.199261   
C30      C      0.110970000000     0.232750000000     0.524740000000     0.0254559  
C31      C      0.110490000000     0.278900000000     0.493220000000    -0.00469797 
C32      C      0.144020000000     0.233640000000     0.525510000000     0.0326543  
C33      C      0.143670000000     0.278740000000     0.492030000000     0.110977   
C34      C      0.160170000000     0.305040000000     0.474150000000    -0.198843   
C35      C      0.234950000000     0.362320000000     0.985350000000     0.0298267  
C36      C      0.266610000000     0.361540000000     0.031400000000    -0.00589096 
C37      C      0.233670000000     0.395220000000     0.986690000000     0.0376496  
C38      C      0.267690000000     0.394850000000     0.031400000000     0.106917   
C39      C      0.286710000000     0.411210000000     0.056970000000    -0.197742   
C40      C      0.227740000000     0.112430000000     0.988280000000     0.0362789  
C41      C      0.278630000000     0.111800000000     0.011410000000    -0.00143603 
C42      C      0.228910000000     0.145440000000     0.986630000000     0.0319267  
C43      C      0.279100000000     0.144990000000     0.011800000000     0.103673   
C44      C      0.308220000000     0.161620000000     0.024180000000    -0.198535   
C45      C      0.234470000000     0.019070000000     0.395080000000     0.0253252  
C46      C      0.278780000000     0.985080000000     0.396230000000     0.00312463 
C47      C      0.236120000000     0.020250000000     0.362210000000     0.027956   
C48      C      0.279030000000     0.984020000000     0.362890000000     0.113661   
C49      C      0.303660000000     0.963560000000     0.346810000000    -0.19992    
C50      C      0.266180000000     0.027170000000     0.145080000000     0.024968   
C51      C      0.231030000000     0.483760000000     0.146230000000    -0.00287638 
C52      C      0.266150000000     0.026290000000     0.112120000000     0.0312785  
C53      C      0.228710000000     0.484410000000     0.113000000000     0.107923   
C54      C      0.207180000000     0.460670000000     0.096980000000    -0.19798    
C55      C      0.482330000000     0.267470000000     0.364390000000     0.0261721  
C56      C      0.527420000000     0.234490000000     0.363340000000    -0.00336108 
C57      C      0.483720000000     0.268360000000     0.397290000000     0.0337905  
C58      C      0.527540000000     0.233260000000     0.396690000000     0.110788   
C59      C      0.553020000000     0.214200000000     0.413120000000    -0.200469   
C60      C      0.020610000000     0.274230000000     0.146530000000     0.0160671  
C61      C      0.475690000000     0.241010000000     0.147180000000    -0.00609759 
C62      C      0.018730000000     0.276120000000     0.113560000000     0.0269553  
C63      C      0.474870000000     0.241050000000     0.113950000000     0.110574   
C64      C      0.448840000000     0.222710000000     0.097530000000    -0.198602   
C65      C      0.112920000000     0.016120000000     0.232010000000     0.0258924  
C66      C      0.112020000000     0.488020000000     0.280350000000    -0.00237589 
C67      C      0.145850000000     0.017260000000     0.233310000000     0.0314935  
C68      C      0.145290000000     0.486870000000     0.280570000000     0.110689   
C69      C      0.161750000000     0.470520000000     0.307870000000    -0.199815   
C70      C      0.395170000000     0.488960000000     0.230740000000     0.0275709  
C71      C      0.395640000000     0.021080000000     0.276470000000    -0.00276681 
C72      C      0.362180000000     0.488130000000     0.231690000000     0.0315489  
C73      C      0.362430000000     0.022650000000     0.276050000000     0.106091   
C74      C      0.346180000000     0.042350000000     0.301220000000    -0.196499   
C75      C      0.015710000000     0.394540000000     0.279730000000     0.0261468  
C76      C      0.488050000000     0.395010000000     0.231130000000    -0.0021946  
C77      C      0.016390000000     0.361550000000     0.279010000000     0.0315378  
C78      C      0.486410000000     0.361800000000     0.231460000000     0.110797   
C79      C      0.470200000000     0.345180000000     0.204150000000    -0.199771   
C80      C      0.490220000000     0.112240000000     0.277290000000     0.0270238  
C81      C      0.017970000000     0.111740000000     0.228760000000    -0.00351725 
C82      C      0.488600000000     0.145170000000     0.276020000000     0.0328238  
C83      C      0.018550000000     0.145020000000     0.228470000000     0.108763   
C84      C      0.034270000000     0.161630000000     0.200890000000    -0.19862    
C85      C      0.002950000000     0.443390000000     0.755220000000     0.474313   
C86      C      0.004500000000     0.063320000000     0.753830000000     0.473073   
C87      C      0.063840000000     0.002490000000     0.755400000000     0.473369   
C88      C      0.443950000000     0.004140000000     0.753850000000     0.474244   
C89      C      0.003060000000     0.193700000000     0.753250000000     0.467857   
C90      C      0.001280000000     0.313140000000     0.756360000000     0.468364   
C91      C      0.500240000000     0.255460000000     0.695490000000     0.467354   
C92      C      0.503820000000     0.251680000000     0.815180000000     0.472522   
C93      C      0.313580000000     0.005060000000     0.752800000000     0.465597   
C94      C      0.194120000000     0.002480000000     0.756260000000     0.468023   
C95      C      0.251260000000     0.504740000000     0.694190000000     0.47328    
C96      C      0.256530000000     0.502540000000     0.813760000000     0.472892   
C97      C      0.248460000000     0.005320000000     0.563840000000     0.475844   
C98      C      0.254610000000     0.001670000000     0.944230000000     0.462065   
C99      C      0.252130000000     0.063430000000     0.001540000000     0.472409   
C100     C      0.251180000000     0.443710000000     0.007190000000     0.475691   
C101     C      0.998660000000     0.257340000000     0.565160000000     0.487834   
C102     C      0.005260000000     0.251990000000     0.945640000000     0.47639    
C103     C      0.062050000000     0.255180000000     0.008290000000     0.470372   
C104     C      0.442350000000     0.254310000000     0.002170000000     0.471973   
C105     C      0.252720000000     0.193630000000     0.000830000000     0.46398    
C106     C      0.251710000000     0.313320000000     0.006630000000     0.460641   
C107     C      0.192350000000     0.253890000000     0.506700000000     0.479611   
C108     C      0.312050000000     0.254170000000     0.501120000000     0.476782   
C109     C      0.393460000000     0.232030000000     0.517470000000     0.0256748  
C110     C      0.394250000000     0.276460000000     0.983600000000     0.00710538 
C111     C      0.360570000000     0.233450000000     0.518470000000     0.0309235  
C112     C      0.360950000000     0.276100000000     0.981930000000     0.108598   
C113     C      0.344520000000     0.300970000000     0.962080000000    -0.198494   
C114     C      0.110970000000     0.232750000000     0.024750000000     0.0241545  
C115     C      0.110490000000     0.278900000000     0.993220000000     0.0017749  
C116     C      0.144020000000     0.233640000000     0.025510000000     0.0310308  
C117     C      0.143670000000     0.278740000000     0.992030000000     0.116646   
C118     C      0.160170000000     0.305040000000     0.974150000000    -0.200673   
C119     C      0.234950000000     0.362320000000     0.485360000000     0.0244599  
C120     C      0.266610000000     0.361540000000     0.531400000000    -0.00430486 
C121     C      0.233670000000     0.395220000000     0.486690000000     0.0310039  
C122     C      0.267690000000     0.394850000000     0.531400000000     0.108007   
C123     C      0.286710000000     0.411210000000     0.556970000000    -0.198058   
C124     C      0.227740000000     0.112430000000     0.488280000000     0.0267595  
C125     C      0.278630000000     0.111800000000     0.511400000000    -0.00289416 
C126     C      0.228910000000     0.145440000000     0.486630000000     0.0336825  
C127     C      0.279100000000     0.144990000000     0.511800000000     0.112263   
C128     C      0.308220000000     0.161620000000     0.524180000000    -0.202091   
C129     C      0.234470000000     0.019070000000     0.895080000000     0.0256291  
C130     C      0.278780000000     0.985080000000     0.896230000000     0.00333699 
C131     C      0.236120000000     0.020250000000     0.862210000000     0.0282157  
C132     C      0.279030000000     0.984020000000     0.862890000000     0.113983   
C133     C      0.303660000000     0.963560000000     0.846810000000    -0.20011    
C134     C      0.266180000000     0.027170000000     0.645080000000     0.0249983  
C135     C      0.231030000000     0.483760000000     0.646230000000    -0.00289858 
C136     C      0.266150000000     0.026290000000     0.612120000000     0.0314321  
C137     C      0.228710000000     0.484410000000     0.613000000000     0.10814    
C138     C      0.207180000000     0.460670000000     0.596980000000    -0.198216   
C139     C      0.482330000000     0.267470000000     0.864390000000     0.0264089  
C140     C      0.527420000000     0.234490000000     0.863340000000    -0.0033502  
C141     C      0.483720000000     0.268360000000     0.897280000000     0.0340897  
C142     C      0.527540000000     0.233260000000     0.896690000000     0.111434   
C143     C      0.553020000000     0.214200000000     0.913120000000    -0.201271   
C144     C      0.020610000000     0.274230000000     0.646530000000     0.0161307  
C145     C      0.475690000000     0.241010000000     0.647180000000    -0.00610386 
C146     C      0.018730000000     0.276120000000     0.613560000000     0.0271069  
C147     C      0.474870000000     0.241050000000     0.613950000000     0.110773   
C148     C      0.448840000000     0.222710000000     0.597530000000    -0.19874    
C149     C      0.112920000000     0.016120000000     0.732010000000     0.025924   
C150     C      0.112020000000     0.488020000000     0.780350000000    -0.002337   
C151     C      0.145850000000     0.017260000000     0.733310000000     0.0315584  
C152     C      0.145290000000     0.486870000000     0.780570000000     0.110838   
C153     C      0.161750000000     0.470520000000     0.807870000000    -0.199968   
C154     C      0.395170000000     0.488960000000     0.730740000000     0.0275954  
C155     C      0.395640000000     0.021080000000     0.776470000000    -0.00275139 
C156     C      0.362180000000     0.488130000000     0.731690000000     0.0316139  
C157     C      0.362430000000     0.022650000000     0.776050000000     0.106243   
C158     C      0.346180000000     0.042350000000     0.801220000000    -0.196685   
C159     C      0.015710000000     0.394540000000     0.779730000000     0.0261994  
C160     C      0.488050000000     0.395010000000     0.731130000000    -0.00221214 
C161     C      0.016390000000     0.361550000000     0.779000000000     0.0316461  
C162     C      0.486410000000     0.361800000000     0.731460000000     0.110969   
C163     C      0.470200000000     0.345180000000     0.704150000000    -0.199901   
C164     C      0.490220000000     0.112240000000     0.777290000000     0.027174   
C165     C      0.017970000000     0.111740000000     0.728760000000    -0.0035676  
C166     C      0.488600000000     0.145170000000     0.776020000000     0.0328779  
C167     C      0.018550000000     0.145020000000     0.728470000000     0.108869   
C168     C      0.034270000000     0.161630000000     0.700890000000    -0.198726   
C169     C      0.002950000000     0.943390000000     0.255220000000     0.473209   
C170     C      0.004500000000     0.563320000000     0.253830000000     0.473882   
C171     C      0.063840000000     0.502490000000     0.255400000000     0.475241   
C172     C      0.443950000000     0.504140000000     0.253850000000     0.475785   
C173     C      0.003060000000     0.693700000000     0.253250000000     0.46768    
C174     C      0.001280000000     0.813140000000     0.256360000000     0.468451   
C175     C      0.500240000000     0.755460000000     0.195490000000     0.467361   
C176     C      0.503820000000     0.751680000000     0.315180000000     0.472497   
C177     C      0.313580000000     0.505060000000     0.252800000000     0.476018   
C178     C      0.194120000000     0.502480000000     0.256260000000     0.47816    
C179     C      0.251260000000     0.004730000000     0.194190000000     0.463015   
C180     C      0.256530000000     0.002540000000     0.313760000000     0.462363   
C181     C      0.248460000000     0.505320000000     0.063840000000     0.477248   
C182     C      0.254610000000     0.501670000000     0.444230000000     0.474952   
C183     C      0.252130000000     0.563430000000     0.501540000000     0.474733   
C184     C      0.251180000000     0.943710000000     0.507190000000     0.47511    
C185     C      0.998660000000     0.757340000000     0.065160000000     0.487101   
C186     C      0.005260000000     0.751990000000     0.445640000000     0.47763    
C187     C      0.062050000000     0.755180000000     0.508290000000     0.471826   
C188     C      0.442350000000     0.754310000000     0.502170000000     0.473156   
C189     C      0.252720000000     0.693630000000     0.500830000000     0.480547   
C190     C      0.251710000000     0.813320000000     0.506630000000     0.47052    
C191     C      0.192350000000     0.753890000000     0.006700000000     0.46952    
C192     C      0.312050000000     0.754170000000     0.001120000000     0.460311   
C193     C      0.393460000000     0.732030000000     0.017470000000     0.0274794  
C194     C      0.394250000000     0.776460000000     0.483590000000    -0.0019544  
C195     C      0.360570000000     0.733450000000     0.018470000000     0.0219814  
C196     C      0.360950000000     0.776100000000     0.481930000000     0.109819   
C197     C      0.344520000000     0.800970000000     0.462090000000    -0.199403   
C198     C      0.110970000000     0.732750000000     0.524740000000     0.0254991  
C199     C      0.110490000000     0.778900000000     0.493220000000    -0.00464852 
C200     C      0.144020000000     0.733640000000     0.525510000000     0.032708   
C201     C      0.143670000000     0.778740000000     0.492030000000     0.111108   
C202     C      0.160170000000     0.805040000000     0.474150000000    -0.198992   
C203     C      0.234950000000     0.862320000000     0.985350000000     0.0300179  
C204     C      0.266610000000     0.861540000000     0.031400000000    -0.00588664 
C205     C      0.233670000000     0.895220000000     0.986690000000     0.0377673  
C206     C      0.267690000000     0.894850000000     0.031400000000     0.107344   
C207     C      0.286710000000     0.911210000000     0.056970000000    -0.198454   
C208     C      0.227740000000     0.612430000000     0.988280000000     0.0364528  
C209     C      0.278630000000     0.611800000000     0.011410000000    -0.00125446 
C210     C      0.228910000000     0.645440000000     0.986630000000     0.0319927  
C211     C      0.279100000000     0.644990000000     0.011800000000     0.103775   
C212     C      0.308220000000     0.661620000000     0.024180000000    -0.198629   
C213     C      0.234470000000     0.519070000000     0.395080000000     0.0270169  
C214     C      0.278780000000     0.485090000000     0.396230000000    -0.00269645 
C215     C      0.236120000000     0.520250000000     0.362210000000     0.0296894  
C216     C      0.279030000000     0.484020000000     0.362890000000     0.107245   
C217     C      0.303660000000     0.463560000000     0.346810000000    -0.197682   
C218     C      0.266180000000     0.527170000000     0.145080000000     0.026577   
C219     C      0.231030000000     0.983760000000     0.146230000000     0.0029618  
C220     C      0.266150000000     0.526290000000     0.112120000000     0.0324836  
C221     C      0.228710000000     0.984410000000     0.113000000000     0.114731   
C222     C      0.207180000000     0.960660000000     0.096980000000    -0.20017    
C223     C      0.482330000000     0.767470000000     0.364390000000     0.0262382  
C224     C      0.527420000000     0.734490000000     0.363340000000    -0.00333462 
C225     C      0.483720000000     0.768360000000     0.397290000000     0.0338867  
C226     C      0.527540000000     0.733260000000     0.396690000000     0.11091    
C227     C      0.553020000000     0.714200000000     0.413120000000    -0.200589   
C228     C      0.020610000000     0.774230000000     0.146530000000     0.0161352  
C229     C      0.475690000000     0.741010000000     0.147180000000    -0.00609043 
C230     C      0.018730000000     0.776120000000     0.113560000000     0.0270708  
C231     C      0.474870000000     0.741050000000     0.113950000000     0.110689   
C232     C      0.448840000000     0.722710000000     0.097530000000    -0.198733   
C233     C      0.112920000000     0.516120000000     0.232010000000     0.0271809  
C234     C      0.112020000000     0.988020000000     0.280350000000     0.00441366 
C235     C      0.145850000000     0.517260000000     0.233310000000     0.0332385  
C236     C      0.145290000000     0.986870000000     0.280570000000     0.116822   
C237     C      0.161750000000     0.970520000000     0.307870000000    -0.20199    
C238     C      0.395170000000     0.988960000000     0.230740000000     0.0345893  
C239     C      0.395640000000     0.521080000000     0.276470000000    -0.00177645 
C240     C      0.362180000000     0.988130000000     0.231690000000     0.0375353  
C241     C      0.362430000000     0.522650000000     0.276050000000     0.108174   
C242     C      0.346180000000     0.542350000000     0.301220000000    -0.197378   
C243     C      0.015710000000     0.894540000000     0.279730000000     0.0264662  
C244     C      0.488050000000     0.895010000000     0.231130000000    -0.00194561 
C245     C      0.016390000000     0.861550000000     0.279010000000     0.031815   
C246     C      0.486410000000     0.861800000000     0.231460000000     0.111161   
C247     C      0.470200000000     0.845180000000     0.204150000000    -0.199971   
C248     C      0.490220000000     0.612230000000     0.277290000000     0.0272152  
C249     C      0.017970000000     0.611740000000     0.228760000000    -0.0033864  
C250     C      0.488600000000     0.645170000000     0.276020000000     0.03287    
C251     C      0.018550000000     0.645020000000     0.228470000000     0.108867   
C252     C      0.034270000000     0.661630000000     0.200890000000    -0.19872    
C253     C      0.002950000000     0.943390000000     0.755220000000     0.473146   
C254     C      0.004500000000     0.563320000000     0.753830000000     0.473827   
C255     C      0.063840000000     0.502490000000     0.755400000000     0.474868   
C256     C      0.443950000000     0.504140000000     0.753850000000     0.475718   
C257     C      0.003060000000     0.693700000000     0.753250000000     0.467772   
C258     C      0.001280000000     0.813140000000     0.756360000000     0.468493   
C259     C      0.500240000000     0.755460000000     0.695490000000     0.467351   
C260     C      0.503820000000     0.751680000000     0.815180000000     0.472558   
C261     C      0.313580000000     0.505060000000     0.752800000000     0.476013   
C262     C      0.194120000000     0.502480000000     0.756260000000     0.478226   
C263     C      0.251260000000     0.004730000000     0.694190000000     0.463018   
C264     C      0.256530000000     0.002540000000     0.813760000000     0.462411   
C265     C      0.248460000000     0.505320000000     0.563840000000     0.477933   
C266     C      0.254610000000     0.501670000000     0.944230000000     0.473925   
C267     C      0.252130000000     0.563430000000     0.001540000000     0.473532   
C268     C      0.251180000000     0.943710000000     0.007190000000     0.473755   
C269     C      0.998660000000     0.757340000000     0.565160000000     0.487794   
C270     C      0.005260000000     0.751990000000     0.945640000000     0.476373   
C271     C      0.062050000000     0.755180000000     0.008290000000     0.470356   
C272     C      0.442350000000     0.754310000000     0.002170000000     0.471947   
C273     C      0.252720000000     0.693630000000     0.000830000000     0.463987   
C274     C      0.251710000000     0.813320000000     0.006630000000     0.460683   
C275     C      0.192350000000     0.753890000000     0.506700000000     0.479614   
C276     C      0.312050000000     0.754170000000     0.501120000000     0.476813   
C277     C      0.393460000000     0.732030000000     0.517470000000     0.0257148  
C278     C      0.394250000000     0.776460000000     0.983600000000     0.00711499 
C279     C      0.360570000000     0.733450000000     0.518470000000     0.0309737  
C280     C      0.360950000000     0.776100000000     0.981930000000     0.108734   
C281     C      0.344520000000     0.800970000000     0.962080000000    -0.198635   
C282     C      0.110970000000     0.732750000000     0.024750000000     0.0241984  
C283     C      0.110490000000     0.778900000000     0.993220000000     0.00181173 
C284     C      0.144020000000     0.733640000000     0.025510000000     0.0310859  
C285     C      0.143670000000     0.778740000000     0.992030000000     0.116765   
C286     C      0.160170000000     0.805040000000     0.974150000000    -0.200817   
C287     C      0.234950000000     0.862320000000     0.485360000000     0.0246667  
C288     C      0.266610000000     0.861540000000     0.531400000000    -0.00430467 
C289     C      0.233670000000     0.895220000000     0.486690000000     0.031151   
C290     C      0.267690000000     0.894850000000     0.531400000000     0.108431   
C291     C      0.286710000000     0.911210000000     0.556970000000    -0.198771   
C292     C      0.227740000000     0.612430000000     0.488280000000     0.0269328  
C293     C      0.278630000000     0.611800000000     0.511400000000    -0.00270976 
C294     C      0.228910000000     0.645440000000     0.486630000000     0.0337499  
C295     C      0.279100000000     0.644990000000     0.511800000000     0.112363   
C296     C      0.308220000000     0.661620000000     0.524180000000    -0.202184   
C297     C      0.234470000000     0.519070000000     0.895080000000     0.0273188  
C298     C      0.278780000000     0.485090000000     0.896230000000    -0.00245595 
C299     C      0.236120000000     0.520250000000     0.862210000000     0.0299443  
C300     C      0.279030000000     0.484020000000     0.862890000000     0.107585   
C301     C      0.303660000000     0.463560000000     0.846810000000    -0.197878   
C302     C      0.266180000000     0.527170000000     0.645080000000     0.0266079  
C303     C      0.231030000000     0.983760000000     0.646230000000     0.00293546 
C304     C      0.266150000000     0.526290000000     0.612120000000     0.0326384  
C305     C      0.228710000000     0.984410000000     0.613000000000     0.11495    
C306     C      0.207180000000     0.960660000000     0.596980000000    -0.200406   
C307     C      0.482330000000     0.767470000000     0.864390000000     0.0264743  
C308     C      0.527420000000     0.734490000000     0.863340000000    -0.00332388 
C309     C      0.483720000000     0.768360000000     0.897280000000     0.0341851  
C310     C      0.527540000000     0.733260000000     0.896690000000     0.111555   
C311     C      0.553020000000     0.714200000000     0.913120000000    -0.20139    
C312     C      0.020610000000     0.774230000000     0.646530000000     0.0161987  
C313     C      0.475690000000     0.741010000000     0.647180000000    -0.00609673 
C314     C      0.018730000000     0.776120000000     0.613560000000     0.0272222  
C315     C      0.474870000000     0.741050000000     0.613950000000     0.110889   
C316     C      0.448840000000     0.722710000000     0.597530000000    -0.198872   
C317     C      0.112920000000     0.516120000000     0.732010000000     0.0272119  
C318     C      0.112020000000     0.988020000000     0.780350000000     0.00444062 
C319     C      0.145850000000     0.517260000000     0.733310000000     0.0333021  
C320     C      0.145290000000     0.986870000000     0.780570000000     0.11696    
C321     C      0.161750000000     0.970520000000     0.807870000000    -0.202137   
C322     C      0.395170000000     0.988960000000     0.730740000000     0.034603   
C323     C      0.395640000000     0.521080000000     0.776470000000    -0.00176189 
C324     C      0.362180000000     0.988130000000     0.731690000000     0.0375897  
C325     C      0.362430000000     0.522650000000     0.776050000000     0.108324   
C326     C      0.346180000000     0.542350000000     0.801220000000    -0.197562   
C327     C      0.015710000000     0.894540000000     0.779730000000     0.026518   
C328     C      0.488050000000     0.895010000000     0.731130000000    -0.00196362 
C329     C      0.016390000000     0.861550000000     0.779000000000     0.0319225  
C330     C      0.486410000000     0.861800000000     0.731460000000     0.111332   
C331     C      0.470200000000     0.845180000000     0.704150000000    -0.2001     
C332     C      0.490220000000     0.612230000000     0.777290000000     0.0273651  
C333     C      0.017970000000     0.611740000000     0.728760000000    -0.00343691 
C334     C      0.488600000000     0.645170000000     0.776020000000     0.032924   
C335     C      0.018550000000     0.645020000000     0.728470000000     0.108973   
C336     C      0.034270000000     0.661630000000     0.700890000000    -0.198825   
C337     C      0.502950000000     0.443390000000     0.255220000000     0.475839   
C338     C      0.504500000000     0.063320000000     0.253830000000     0.474546   
C339     C      0.563840000000     0.002490000000     0.255400000000     0.474484   
C340     C      0.943950000000     0.004140000000     0.253850000000     0.473187   
C341     C      0.503070000000     0.193700000000     0.253250000000     0.477839   
C342     C      0.501280000000     0.313140000000     0.256360000000     0.478633   
C343     C      0.000240000000     0.255460000000     0.195490000000     0.450303   
C344     C      0.003820000000     0.251680000000     0.315180000000     0.462385   
C345     C      0.813580000000     0.005060000000     0.252800000000     0.465666   
C346     C      0.694120000000     0.002480000000     0.256260000000     0.467957   
C347     C      0.751260000000     0.504740000000     0.194190000000     0.4733     
C348     C      0.756530000000     0.502540000000     0.313760000000     0.472853   
C349     C      0.748460000000     0.005320000000     0.063840000000     0.475149   
C350     C      0.754610000000     0.001670000000     0.444230000000     0.463056   
C351     C      0.752130000000     0.063430000000     0.501540000000     0.473902   
C352     C      0.751180000000     0.443710000000     0.507190000000     0.477035   
C353     C      0.498660000000     0.257340000000     0.065160000000     0.478527   
C354     C      0.505260000000     0.251990000000     0.445640000000     0.479309   
C355     C      0.562050000000     0.255180000000     0.508290000000     0.472954   
C356     C      0.942350000000     0.254310000000     0.502170000000     0.471394   
C357     C      0.752720000000     0.193630000000     0.500830000000     0.480546   
C358     C      0.751710000000     0.313320000000     0.506630000000     0.470494   
C359     C      0.692350000000     0.253890000000     0.006700000000     0.469469   
C360     C      0.812050000000     0.254170000000     0.001120000000     0.460382   
C361     C      0.893450000000     0.232030000000     0.017470000000     0.027532   
C362     C      0.894240000000     0.276460000000     0.483590000000    -0.00186009 
C363     C      0.860570000000     0.233450000000     0.018470000000     0.0221941  
C364     C      0.860950000000     0.276100000000     0.481930000000     0.11004    
C365     C      0.844510000000     0.300970000000     0.462090000000    -0.199506   
C366     C      0.610970000000     0.232750000000     0.524740000000     0.0256608  
C367     C      0.610490000000     0.278900000000     0.493220000000    -0.00460284 
C368     C      0.644020000000     0.233640000000     0.525510000000     0.0327123  
C369     C      0.643670000000     0.278740000000     0.492030000000     0.111076   
C370     C      0.660170000000     0.305040000000     0.474150000000    -0.198942   
C371     C      0.734950000000     0.362320000000     0.985350000000     0.0298574  
C372     C      0.766610000000     0.361540000000     0.031400000000    -0.00587649 
C373     C      0.733670000000     0.395220000000     0.986690000000     0.0376859  
C374     C      0.767690000000     0.394850000000     0.031400000000     0.107068   
C375     C      0.786710000000     0.411210000000     0.056970000000    -0.197903   
C376     C      0.727730000000     0.112430000000     0.988280000000     0.0362057  
C377     C      0.778630000000     0.111800000000     0.011410000000    -0.00141698 
C378     C      0.728910000000     0.145440000000     0.986630000000     0.0320356  
C379     C      0.779100000000     0.144990000000     0.011800000000     0.103858   
C380     C      0.808220000000     0.161620000000     0.024180000000    -0.19872    
C381     C      0.734470000000     0.019070000000     0.395080000000     0.0253702  
C382     C      0.778780000000     0.985080000000     0.396230000000     0.00314246 
C383     C      0.736120000000     0.020250000000     0.362210000000     0.0280018  
C384     C      0.779030000000     0.984020000000     0.362890000000     0.11379    
C385     C      0.803660000000     0.963560000000     0.346810000000    -0.200085   
C386     C      0.766180000000     0.027170000000     0.145080000000     0.0250362  
C387     C      0.731030000000     0.483760000000     0.146230000000    -0.00285858 
C388     C      0.766150000000     0.026290000000     0.112120000000     0.0313705  
C389     C      0.728710000000     0.484410000000     0.113000000000     0.108027   
C390     C      0.707180000000     0.460670000000     0.096980000000    -0.198098   
C391     C      0.982330000000     0.267470000000     0.364390000000     0.032104   
C392     C      0.027420000000     0.234490000000     0.363340000000    -0.00485183 
C393     C      0.983710000000     0.268360000000     0.397290000000     0.0406048  
C394     C      0.027550000000     0.233260000000     0.396690000000     0.109659   
C395     C      0.053020000000     0.214200000000     0.413120000000    -0.20017    
C396     C      0.520610000000     0.274230000000     0.146530000000     0.0232229  
C397     C      0.975690000000     0.241010000000     0.147180000000    -0.0056514  
C398     C      0.518730000000     0.276120000000     0.113560000000     0.03239    
C399     C      0.974870000000     0.241050000000     0.113950000000     0.112737   
C400     C      0.948840000000     0.222710000000     0.097530000000    -0.199622   
C401     C      0.612920000000     0.016120000000     0.232010000000     0.0260443  
C402     C      0.612020000000     0.488020000000     0.280350000000    -0.00225072 
C403     C      0.645850000000     0.017260000000     0.233310000000     0.0315489  
C404     C      0.645290000000     0.486870000000     0.280570000000     0.11079    
C405     C      0.661750000000     0.470520000000     0.307870000000    -0.199902   
C406     C      0.895170000000     0.488960000000     0.230740000000     0.0279121  
C407     C      0.895640000000     0.021080000000     0.276470000000    -0.00248163 
C408     C      0.862180000000     0.488130000000     0.231690000000     0.0318205  
C409     C      0.862430000000     0.022650000000     0.276050000000     0.106434   
C410     C      0.846180000000     0.042350000000     0.301220000000    -0.19661    
C411     C      0.515710000000     0.394540000000     0.279730000000     0.0273785  
C412     C      0.988050000000     0.395010000000     0.231130000000     0.00446925 
C413     C      0.516390000000     0.361550000000     0.279010000000     0.033234   
C414     C      0.986420000000     0.361800000000     0.231460000000     0.116802   
C415     C      0.970200000000     0.345180000000     0.204150000000    -0.201855   
C416     C      0.990220000000     0.112240000000     0.277290000000     0.0339961  
C417     C      0.517970000000     0.111740000000     0.228760000000    -0.00250937 
C418     C      0.988600000000     0.145170000000     0.276020000000     0.0387518  
C419     C      0.518550000000     0.145020000000     0.228470000000     0.110628   
C420     C      0.534270000000     0.161630000000     0.200890000000    -0.199505   
C421     C      0.502950000000     0.443390000000     0.755220000000     0.475772   
C422     C      0.504500000000     0.063320000000     0.753830000000     0.474489   
C423     C      0.563840000000     0.002490000000     0.755400000000     0.47411    
C424     C      0.943950000000     0.004140000000     0.753850000000     0.473124   
C425     C      0.503070000000     0.193700000000     0.753250000000     0.47791    
C426     C      0.501280000000     0.313140000000     0.756360000000     0.478654   
C427     C      0.000240000000     0.255460000000     0.695490000000     0.450316   
C428     C      0.003820000000     0.251680000000     0.815180000000     0.462473   
C429     C      0.813580000000     0.005060000000     0.752800000000     0.465674   
C430     C      0.694120000000     0.002480000000     0.756260000000     0.468036   
C431     C      0.751260000000     0.504740000000     0.694190000000     0.473298   
C432     C      0.756530000000     0.502540000000     0.813760000000     0.472881   
C433     C      0.748460000000     0.005320000000     0.563840000000     0.475826   
C434     C      0.754610000000     0.001670000000     0.944230000000     0.462086   
C435     C      0.752130000000     0.063430000000     0.001540000000     0.472708   
C436     C      0.751180000000     0.443710000000     0.007190000000     0.475674   
C437     C      0.498660000000     0.257340000000     0.565160000000     0.479224   
C438     C      0.505260000000     0.251990000000     0.945640000000     0.478048   
C439     C      0.562050000000     0.255180000000     0.008290000000     0.471481   
C440     C      0.942350000000     0.254310000000     0.002170000000     0.470187   
C441     C      0.752720000000     0.193630000000     0.000830000000     0.464013   
C442     C      0.751710000000     0.313320000000     0.006630000000     0.460658   
C443     C      0.692350000000     0.253890000000     0.506700000000     0.479562   
C444     C      0.812050000000     0.254170000000     0.501120000000     0.476857   
C445     C      0.893450000000     0.232030000000     0.517470000000     0.0257704  
C446     C      0.894240000000     0.276460000000     0.983600000000     0.00717823 
C447     C      0.860570000000     0.233450000000     0.518470000000     0.0311685  
C448     C      0.860950000000     0.276100000000     0.981930000000     0.108958   
C449     C      0.844510000000     0.300970000000     0.962080000000    -0.198742   
C450     C      0.610970000000     0.232750000000     0.024750000000     0.0243597  
C451     C      0.610490000000     0.278900000000     0.993220000000     0.00186591 
C452     C      0.644020000000     0.233640000000     0.025510000000     0.0310898  
C453     C      0.643670000000     0.278740000000     0.992030000000     0.116734   
C454     C      0.660170000000     0.305040000000     0.974150000000    -0.200768   
C455     C      0.734950000000     0.362320000000     0.485360000000     0.0245046  
C456     C      0.766610000000     0.361540000000     0.531400000000    -0.0042936  
C457     C      0.733670000000     0.395220000000     0.486690000000     0.0310559  
C458     C      0.767690000000     0.394850000000     0.531400000000     0.108155   
C459     C      0.786710000000     0.411210000000     0.556970000000    -0.198219   
C460     C      0.727730000000     0.112430000000     0.488280000000     0.0267113  
C461     C      0.778630000000     0.111800000000     0.511400000000    -0.00287024 
C462     C      0.728910000000     0.145440000000     0.486630000000     0.0337865  
C463     C      0.779100000000     0.144990000000     0.511800000000     0.112429   
C464     C      0.808220000000     0.161620000000     0.524180000000    -0.202268   
C465     C      0.734470000000     0.019070000000     0.895080000000     0.0256733  
C466     C      0.778780000000     0.985080000000     0.896230000000     0.00335413 
C467     C      0.736120000000     0.020250000000     0.862210000000     0.0282608  
C468     C      0.779030000000     0.984020000000     0.862890000000     0.114111   
C469     C      0.803660000000     0.963560000000     0.846810000000    -0.200273   
C470     C      0.766180000000     0.027170000000     0.645080000000     0.0250664  
C471     C      0.731030000000     0.483760000000     0.646230000000    -0.00288081 
C472     C      0.766150000000     0.026290000000     0.612120000000     0.0315238  
C473     C      0.728710000000     0.484410000000     0.613000000000     0.108243   
C474     C      0.707180000000     0.460670000000     0.596980000000    -0.198334   
C475     C      0.982330000000     0.267470000000     0.864390000000     0.0323209  
C476     C      0.027420000000     0.234490000000     0.863340000000    -0.00483558 
C477     C      0.983710000000     0.268360000000     0.897280000000     0.0408607  
C478     C      0.027550000000     0.233260000000     0.896690000000     0.110308   
C479     C      0.053020000000     0.214200000000     0.913120000000    -0.200973   
C480     C      0.520610000000     0.274230000000     0.646530000000     0.0232774  
C481     C      0.975690000000     0.241010000000     0.647180000000    -0.00565807 
C482     C      0.518730000000     0.276120000000     0.613560000000     0.0325419  
C483     C      0.974870000000     0.241050000000     0.613950000000     0.112933   
C484     C      0.948840000000     0.222710000000     0.597530000000    -0.199759   
C485     C      0.612920000000     0.016120000000     0.732010000000     0.0260756  
C486     C      0.612020000000     0.488020000000     0.780350000000    -0.00221211 
C487     C      0.645850000000     0.017260000000     0.733310000000     0.0316138  
C488     C      0.645290000000     0.486870000000     0.780570000000     0.11094    
C489     C      0.661750000000     0.470520000000     0.807870000000    -0.200054   
C490     C      0.895170000000     0.488960000000     0.730740000000     0.0279358  
C491     C      0.895640000000     0.021080000000     0.776470000000    -0.00246683 
C492     C      0.862180000000     0.488130000000     0.731690000000     0.0318849  
C493     C      0.862430000000     0.022650000000     0.776050000000     0.106584   
C494     C      0.846180000000     0.042350000000     0.801220000000    -0.196794   
C495     C      0.515710000000     0.394540000000     0.779730000000     0.0274292  
C496     C      0.988050000000     0.395010000000     0.731130000000     0.0044347  
C497     C      0.516390000000     0.361550000000     0.779000000000     0.0333385  
C498     C      0.986420000000     0.361800000000     0.731460000000     0.116962   
C499     C      0.970200000000     0.345180000000     0.704150000000    -0.201982   
C500     C      0.990220000000     0.112240000000     0.777290000000     0.0341312  
C501     C      0.517970000000     0.111740000000     0.728760000000    -0.00256082 
C502     C      0.988600000000     0.145170000000     0.776020000000     0.0387896  
C503     C      0.518550000000     0.145020000000     0.728470000000     0.110732   
C504     C      0.534270000000     0.161630000000     0.700890000000    -0.199609   
C505     C      0.502950000000     0.943390000000     0.255220000000     0.474665   
C506     C      0.504500000000     0.563320000000     0.253830000000     0.475304   
C507     C      0.563840000000     0.502490000000     0.255400000000     0.475988   
C508     C      0.943950000000     0.504140000000     0.253850000000     0.474657   
C509     C      0.503070000000     0.693700000000     0.253250000000     0.477741   
C510     C      0.501280000000     0.813140000000     0.256360000000     0.478738   
C511     C      0.000240000000     0.755460000000     0.195490000000     0.450332   
C512     C      0.003820000000     0.751680000000     0.315180000000     0.462438   
C513     C      0.813580000000     0.505060000000     0.252800000000     0.476069   
C514     C      0.694120000000     0.502480000000     0.256260000000     0.47816    
C515     C      0.751260000000     0.004730000000     0.194190000000     0.46305    
C516     C      0.756530000000     0.002540000000     0.313760000000     0.462371   
C517     C      0.748460000000     0.505320000000     0.063840000000     0.477229   
C518     C      0.754610000000     0.501670000000     0.444230000000     0.474944   
C519     C      0.752130000000     0.563430000000     0.501540000000     0.475031   
C520     C      0.751180000000     0.943710000000     0.507190000000     0.475094   
C521     C      0.498660000000     0.757340000000     0.065160000000     0.47851    
C522     C      0.505260000000     0.751990000000     0.445640000000     0.479288   
C523     C      0.562050000000     0.755180000000     0.508290000000     0.472934   
C524     C      0.942350000000     0.754310000000     0.502170000000     0.471371   
C525     C      0.752720000000     0.693630000000     0.500830000000     0.480545   
C526     C      0.751710000000     0.813320000000     0.506630000000     0.470517   
C527     C      0.692350000000     0.753890000000     0.006700000000     0.469485   
C528     C      0.812050000000     0.754170000000     0.001120000000     0.460436   
C529     C      0.893450000000     0.732030000000     0.017470000000     0.0275679  
C530     C      0.894240000000     0.776460000000     0.483590000000    -0.00183595 
C531     C      0.860570000000     0.733450000000     0.018470000000     0.0222567  
C532     C      0.860950000000     0.776100000000     0.481930000000     0.110175   
C533     C      0.844510000000     0.800970000000     0.462090000000    -0.199646   
C534     C      0.610970000000     0.732750000000     0.524740000000     0.0257036  
C535     C      0.610490000000     0.778900000000     0.493220000000    -0.00455358 
C536     C      0.644020000000     0.733640000000     0.525510000000     0.0327659  
C537     C      0.643670000000     0.778740000000     0.492030000000     0.111206   
C538     C      0.660170000000     0.805040000000     0.474150000000    -0.199091   
C539     C      0.734950000000     0.862320000000     0.985350000000     0.0300483  
C540     C      0.766610000000     0.861540000000     0.031400000000    -0.00587209 
C541     C      0.733670000000     0.895220000000     0.986690000000     0.037803   
C542     C      0.767690000000     0.894850000000     0.031400000000     0.107492   
C543     C      0.786710000000     0.911210000000     0.056970000000    -0.198613   
C544     C      0.727730000000     0.612430000000     0.988280000000     0.0363793  
C545     C      0.778630000000     0.611800000000     0.011410000000    -0.00123572 
C546     C      0.728910000000     0.645440000000     0.986630000000     0.0321017  
C547     C      0.779100000000     0.644990000000     0.011800000000     0.103959   
C548     C      0.808220000000     0.661620000000     0.024180000000    -0.198814   
C549     C      0.734470000000     0.519070000000     0.395080000000     0.0270595  
C550     C      0.778780000000     0.485090000000     0.396230000000    -0.00266559 
C551     C      0.736120000000     0.520250000000     0.362210000000     0.029733   
C552     C      0.779030000000     0.484020000000     0.362890000000     0.10739    
C553     C      0.803660000000     0.463560000000     0.346810000000    -0.197853   
C554     C      0.766180000000     0.527170000000     0.145080000000     0.0266426  
C555     C      0.731030000000     0.983760000000     0.146230000000     0.00296718 
C556     C      0.766150000000     0.526290000000     0.112120000000     0.0325737  
C557     C      0.728710000000     0.984410000000     0.113000000000     0.11482    
C558     C      0.707180000000     0.960660000000     0.096980000000    -0.200284   
C559     C      0.982330000000     0.767470000000     0.364390000000     0.0321567  
C560     C      0.027420000000     0.734490000000     0.363340000000    -0.00482316 
C561     C      0.983710000000     0.768360000000     0.397290000000     0.040685   
C562     C      0.027550000000     0.733260000000     0.396690000000     0.109782   
C563     C      0.053020000000     0.714200000000     0.413120000000    -0.200289   
C564     C      0.520610000000     0.774230000000     0.146530000000     0.0232763  
C565     C      0.975690000000     0.741010000000     0.147180000000    -0.00564542 
C566     C      0.518730000000     0.776120000000     0.113560000000     0.0324949  
C567     C      0.974870000000     0.741050000000     0.113950000000     0.112848   
C568     C      0.948840000000     0.722710000000     0.097530000000    -0.199752   
C569     C      0.612920000000     0.516120000000     0.232010000000     0.0273332  
C570     C      0.612020000000     0.988020000000     0.280350000000     0.00453736 
C571     C      0.645850000000     0.517260000000     0.233310000000     0.0332935  
C572     C      0.645290000000     0.986870000000     0.280570000000     0.116916   
C573     C      0.661750000000     0.970520000000     0.307870000000    -0.202074   
C574     C      0.895170000000     0.988960000000     0.230740000000     0.034897   
C575     C      0.895640000000     0.521080000000     0.276470000000    -0.00149327 
C576     C      0.862180000000     0.988130000000     0.231690000000     0.0377868  
C577     C      0.862430000000     0.522650000000     0.276050000000     0.108511   
C578     C      0.846180000000     0.542350000000     0.301220000000    -0.197484   
C579     C      0.515710000000     0.894540000000     0.279730000000     0.0276952  
C580     C      0.988050000000     0.895010000000     0.231130000000     0.00468517 
C581     C      0.516390000000     0.861550000000     0.279010000000     0.0335063  
C582     C      0.986420000000     0.861800000000     0.231460000000     0.117145   
C583     C      0.970200000000     0.845180000000     0.204150000000    -0.202048   
C584     C      0.990220000000     0.612230000000     0.277290000000     0.0341894  
C585     C      0.517970000000     0.611740000000     0.228760000000    -0.00237851 
C586     C      0.988600000000     0.645170000000     0.276020000000     0.0387903  
C587     C      0.518550000000     0.645020000000     0.228470000000     0.110731   
C588     C      0.534270000000     0.661630000000     0.200890000000    -0.199603   
C589     C      0.502950000000     0.943390000000     0.755220000000     0.4746     
C590     C      0.504500000000     0.563320000000     0.753830000000     0.475245   
C591     C      0.563840000000     0.502490000000     0.755400000000     0.475613   
C592     C      0.943950000000     0.504140000000     0.753850000000     0.474593   
C593     C      0.503070000000     0.693700000000     0.753250000000     0.477812   
C594     C      0.501280000000     0.813140000000     0.756360000000     0.478759   
C595     C      0.000240000000     0.755460000000     0.695490000000     0.450345   
C596     C      0.003820000000     0.751680000000     0.815180000000     0.462525   
C597     C      0.813580000000     0.505060000000     0.752800000000     0.476065   
C598     C      0.694120000000     0.502480000000     0.756260000000     0.478227   
C599     C      0.751260000000     0.004730000000     0.694190000000     0.463053   
C600     C      0.756530000000     0.002540000000     0.813760000000     0.462419   
C601     C      0.748460000000     0.505320000000     0.563840000000     0.477912   
C602     C      0.754610000000     0.501670000000     0.944230000000     0.47392    
C603     C      0.752130000000     0.563430000000     0.001540000000     0.473831   
C604     C      0.751180000000     0.943710000000     0.007190000000     0.473741   
C605     C      0.498660000000     0.757340000000     0.565160000000     0.479207   
C606     C      0.505260000000     0.751990000000     0.945640000000     0.478028   
C607     C      0.562050000000     0.755180000000     0.008290000000     0.471463   
C608     C      0.942350000000     0.754310000000     0.002170000000     0.470164   
C609     C      0.752720000000     0.693630000000     0.000830000000     0.46402    
C610     C      0.751710000000     0.813320000000     0.006630000000     0.460701   
C611     C      0.692350000000     0.753890000000     0.506700000000     0.479565   
C612     C      0.812050000000     0.754170000000     0.501120000000     0.476889   
C613     C      0.893450000000     0.732030000000     0.517470000000     0.0258102  
C614     C      0.894240000000     0.776460000000     0.983600000000     0.00718748 
C615     C      0.860570000000     0.733450000000     0.518470000000     0.0312182  
C616     C      0.860950000000     0.776100000000     0.981930000000     0.109092   
C617     C      0.844510000000     0.800970000000     0.962080000000    -0.198882   
C618     C      0.610970000000     0.732750000000     0.024750000000     0.0244033  
C619     C      0.610490000000     0.778900000000     0.993220000000     0.00190253 
C620     C      0.644020000000     0.733640000000     0.025510000000     0.0311449  
C621     C      0.643670000000     0.778740000000     0.992030000000     0.116853   
C622     C      0.660170000000     0.805040000000     0.974150000000    -0.200912   
C623     C      0.734950000000     0.862320000000     0.485360000000     0.024711   
C624     C      0.766610000000     0.861540000000     0.531400000000    -0.00429332 
C625     C      0.733670000000     0.895220000000     0.486690000000     0.0312023  
C626     C      0.767690000000     0.894850000000     0.531400000000     0.108578   
C627     C      0.786710000000     0.911210000000     0.556970000000    -0.198929   
C628     C      0.727730000000     0.612430000000     0.488280000000     0.0268844  
C629     C      0.778630000000     0.611800000000     0.511400000000    -0.00268615 
C630     C      0.728910000000     0.645440000000     0.486630000000     0.0338539  
C631     C      0.779100000000     0.644990000000     0.511800000000     0.112528   
C632     C      0.808220000000     0.661620000000     0.524180000000    -0.202361   
C633     C      0.734470000000     0.519070000000     0.895080000000     0.0273606  
C634     C      0.778780000000     0.485090000000     0.896230000000    -0.00242582 
C635     C      0.736120000000     0.520250000000     0.862210000000     0.0299872  
C636     C      0.779030000000     0.484020000000     0.862890000000     0.107728   
C637     C      0.803660000000     0.463560000000     0.846810000000    -0.198048   
C638     C      0.766180000000     0.527170000000     0.645080000000     0.0266734  
C639     C      0.731030000000     0.983760000000     0.646230000000     0.00294081 
C640     C      0.766150000000     0.526290000000     0.612120000000     0.0327282  
C641     C      0.728710000000     0.984410000000     0.613000000000     0.11504    
C642     C      0.707180000000     0.960660000000     0.596980000000    -0.20052    
C643     C      0.982330000000     0.767470000000     0.864390000000     0.0323729  
C644     C      0.027420000000     0.734490000000     0.863340000000    -0.00480707 
C645     C      0.983710000000     0.768360000000     0.897280000000     0.0409401  
C646     C      0.027550000000     0.733260000000     0.896690000000     0.110429   
C647     C      0.053020000000     0.714200000000     0.913120000000    -0.201091   
C648     C      0.520610000000     0.774230000000     0.646530000000     0.0233307  
C649     C      0.975690000000     0.741010000000     0.647180000000    -0.00565212 
C650     C      0.518730000000     0.776120000000     0.613560000000     0.0326466  
C651     C      0.974870000000     0.741050000000     0.613950000000     0.113044   
C652     C      0.948840000000     0.722710000000     0.597530000000    -0.199889   
C653     C      0.612920000000     0.516120000000     0.732010000000     0.0273639  
C654     C      0.612020000000     0.988020000000     0.780350000000     0.00456401 
C655     C      0.645850000000     0.517260000000     0.733310000000     0.0333571  
C656     C      0.645290000000     0.986870000000     0.780570000000     0.117053   
C657     C      0.661750000000     0.970520000000     0.807870000000    -0.202221   
C658     C      0.895170000000     0.988960000000     0.730740000000     0.0349098  
C659     C      0.895640000000     0.521080000000     0.776470000000    -0.00147933 
C660     C      0.862180000000     0.988130000000     0.731690000000     0.0378406  
C661     C      0.862430000000     0.522650000000     0.776050000000     0.108659   
C662     C      0.846180000000     0.542350000000     0.801220000000    -0.197667   
C663     C      0.515710000000     0.894540000000     0.779730000000     0.0277451  
C664     C      0.988050000000     0.895010000000     0.731130000000     0.0046502  
C665     C      0.516390000000     0.861550000000     0.779000000000     0.03361    
C666     C      0.986420000000     0.861800000000     0.731460000000     0.117305   
C667     C      0.970200000000     0.845180000000     0.704150000000    -0.202174   
C668     C      0.990220000000     0.612230000000     0.777290000000     0.0343242  
C669     C      0.517970000000     0.611740000000     0.728760000000    -0.00243012 
C670     C      0.988600000000     0.645170000000     0.776020000000     0.0388281  
C671     C      0.518550000000     0.645020000000     0.728470000000     0.110835   
C672     C      0.534270000000     0.661630000000     0.700890000000    -0.199708   
H1       H      0.348260000000     0.216710000000     0.033510000000     0.023982   
H2       H      0.405400000000     0.214320000000     0.031730000000     0.0234762  
H3       H      0.407310000000     0.294030000000     0.470130000000     0.0362218  
H4       H      0.325910000000     0.313050000000     0.476200000000     0.0752659  
H5       H      0.361240000000     0.319480000000     0.453750000000     0.0636101  
H6       H      0.333730000000     0.289740000000     0.440920000000     0.0768888  
H7       H      0.156490000000     0.215360000000     0.538570000000     0.0258773  
H8       H      0.098920000000     0.214200000000     0.537780000000     0.0303036  
H9       H      0.097750000000     0.297190000000     0.480430000000     0.0387523  
H10      H      0.179850000000     0.314760000000     0.488560000000     0.0741304  
H11      H      0.169460000000     0.295900000000     0.451340000000     0.0759019  
H12      H      0.143890000000     0.325020000000     0.968900000000     0.0644159  
H13      H      0.220260000000     0.407580000000     0.968580000000     0.0270288  
H14      H      0.222090000000     0.350440000000     0.966570000000     0.0260603  
H15      H      0.279650000000     0.348580000000     0.049360000000     0.0371357  
H16      H      0.273500000000     0.431650000000     0.066830000000     0.0726834  
H17      H      0.291890000000     0.395040000000     0.077070000000     0.0628109  
H18      H      0.309560000000     0.419500000000     0.547010000000     0.0762199  
H19      H      0.208850000000     0.158030000000     0.976680000000     0.0261871  
H20      H      0.207060000000     0.100440000000     0.978910000000     0.0305544  
H21      H      0.298730000000     0.099050000000     0.021080000000     0.0377093  
H22      H      0.302670000000     0.174000000000     0.046670000000     0.0766951  
H23      H      0.327970000000     0.144880000000     0.028780000000     0.0619648  
H24      H      0.316590000000     0.178920000000     0.506260000000     0.0723874  
H25      H      0.218810000000     0.034610000000     0.349770000000     0.0266036  
H26      H      0.216430000000     0.033060000000     0.406850000000     0.0299992  
H27      H      0.295910000000     0.971160000000     0.409390000000     0.0373767  
H28      H      0.314860000000     0.976330000000     0.326800000000     0.0768446  
H29      H      0.322980000000     0.956820000000     0.363350000000     0.0646792  
H30      H      0.292420000000     0.441510000000     0.338000000000     0.0760553  
H31      H      0.280760000000     0.043260000000     0.099510000000     0.0270312  
H32      H      0.281120000000     0.044440000000     0.156850000000     0.0307877  
H33      H      0.217140000000     0.466620000000     0.159410000000     0.0381811  
H34      H      0.219900000000     0.448110000000     0.077740000000     0.0721878  
H35      H      0.198560000000     0.442350000000     0.113780000000     0.0631617  
H36      H      0.186220000000     0.473030000000     0.087080000000     0.0764381  
H37      H      0.466120000000     0.282310000000     0.409790000000     0.0265504  
H38      H      0.464080000000     0.281200000000     0.352630000000     0.0316516  
H39      H      0.545080000000     0.221170000000     0.350260000000     0.0390067  
H40      H      0.542440000000     0.192720000000     0.423930000000     0.0777907  
H41      H      0.571770000000     0.206490000000     0.396370000000     0.0647186  
H42      H      0.064650000000     0.228660000000     0.431760000000     0.0750513  
H43      H      0.036250000000     0.290170000000     0.101090000000     0.0266149  
H44      H      0.038980000000     0.287570000000     0.158520000000     0.0312679  
H45      H      0.458240000000     0.227150000000     0.159990000000     0.0385363  
H46      H      0.458370000000     0.200030000000     0.088310000000     0.0751323  
H47      H      0.429010000000     0.217240000000     0.113920000000     0.0624495  
H48      H      0.438800000000     0.236800000000     0.077750000000     0.073246   
H49      H      0.158400000000     0.029300000000     0.214380000000     0.026535   
H50      H      0.101060000000     0.027830000000     0.212460000000     0.0295518  
H51      H      0.099020000000     0.476580000000     0.299340000000     0.0379235  
H52      H      0.180680000000     0.485910000000     0.317680000000     0.0740776  
H53      H      0.145120000000     0.465160000000     0.327540000000     0.0638745  
H54      H      0.172190000000     0.447870000000     0.299630000000     0.0780635  
H55      H      0.349830000000     0.474540000000     0.213710000000     0.0278073  
H56      H      0.407270000000     0.475560000000     0.212470000000     0.0291438  
H57      H      0.408530000000     0.034110000000     0.294500000000     0.0369994  
H58      H      0.326110000000     0.029250000000     0.311890000000     0.0717016  
H59      H      0.362520000000     0.048520000000     0.320890000000     0.0622921  
H60      H      0.337450000000     0.064750000000     0.290610000000     0.0770845  
H61      H      0.028140000000     0.349100000000     0.298180000000     0.0260978  
H62      H      0.027420000000     0.406600000000     0.299160000000     0.0296421  
H63      H      0.476960000000     0.407830000000     0.211810000000     0.0381213  
H64      H      0.447550000000     0.334690000000     0.212310000000     0.0785448  
H65      H      0.464830000000     0.361700000000     0.184400000000     0.0645647  
H66      H      0.485720000000     0.326320000000     0.194460000000     0.0751613  
H67      H      0.476600000000     0.157530000000     0.295090000000     0.0275548  
H68      H      0.478820000000     0.100210000000     0.296920000000     0.0302167  
H69      H      0.029450000000     0.098920000000     0.209660000000     0.0375646  
H70      H      0.057180000000     0.171900000000     0.208620000000     0.0780174  
H71      H      0.039040000000     0.145120000000     0.180970000000     0.0627303  
H72      H      0.018720000000     0.180680000000     0.191580000000     0.0733657  
H73      H      0.348260000000     0.216710000000     0.533510000000     0.0220968  
H74      H      0.405400000000     0.214320000000     0.531730000000     0.0244418  
H75      H      0.407310000000     0.294030000000     0.970130000000     0.0361802  
H76      H      0.325910000000     0.313050000000     0.976190000000     0.0773934  
H77      H      0.361240000000     0.319480000000     0.953750000000     0.0645715  
H78      H      0.333730000000     0.289740000000     0.940920000000     0.0772061  
H79      H      0.156490000000     0.215360000000     0.038570000000     0.0254177  
H80      H      0.098920000000     0.214200000000     0.037780000000     0.0298392  
H81      H      0.097750000000     0.297190000000     0.980430000000     0.0393966  
H82      H      0.179850000000     0.314760000000     0.988560000000     0.0768488  
H83      H      0.169460000000     0.295900000000     0.951340000000     0.0766686  
H84      H      0.143890000000     0.325020000000     0.468910000000     0.0629532  
H85      H      0.220260000000     0.407580000000     0.468580000000     0.0266279  
H86      H      0.222090000000     0.350440000000     0.466570000000     0.026409   
H87      H      0.279650000000     0.348580000000     0.549360000000     0.0373029  
H88      H      0.273500000000     0.431650000000     0.566830000000     0.0727764  
H89      H      0.291890000000     0.395040000000     0.577070000000     0.063204   
H90      H      0.309560000000     0.419500000000     0.047010000000     0.0752711  
H91      H      0.208850000000     0.158030000000     0.476670000000     0.0236297  
H92      H      0.207060000000     0.100440000000     0.478910000000     0.0302976  
H93      H      0.298730000000     0.099050000000     0.521080000000     0.0387241  
H94      H      0.302670000000     0.174000000000     0.546670000000     0.0776603  
H95      H      0.327970000000     0.144880000000     0.528780000000     0.0634167  
H96      H      0.316590000000     0.178920000000     0.006260000000     0.0702097  
H97      H      0.218810000000     0.034610000000     0.849770000000     0.026828   
H98      H      0.216430000000     0.033060000000     0.906850000000     0.0308276  
H99      H      0.295910000000     0.971160000000     0.909390000000     0.0382482  
H100     H      0.314860000000     0.976330000000     0.826800000000     0.0770112  
H101     H      0.322980000000     0.956820000000     0.863350000000     0.0652396  
H102     H      0.292420000000     0.441510000000     0.838000000000     0.0762757  
H103     H      0.280760000000     0.043260000000     0.599510000000     0.0271699  
H104     H      0.281120000000     0.044440000000     0.656850000000     0.0308607  
H105     H      0.217140000000     0.466620000000     0.659410000000     0.0382591  
H106     H      0.219900000000     0.448110000000     0.577740000000     0.0725061  
H107     H      0.198560000000     0.442350000000     0.613780000000     0.063524   
H108     H      0.186220000000     0.473030000000     0.587080000000     0.0770398  
H109     H      0.466120000000     0.282310000000     0.909800000000     0.0273945  
H110     H      0.464080000000     0.281200000000     0.852640000000     0.0318754  
H111     H      0.545080000000     0.221170000000     0.850260000000     0.0391965  
H112     H      0.542440000000     0.192720000000     0.923920000000     0.0792584  
H113     H      0.571770000000     0.206490000000     0.896370000000     0.0654589  
H114     H      0.064650000000     0.228660000000     0.931760000000     0.076576   
H115     H      0.036250000000     0.290170000000     0.601090000000     0.0269415  
H116     H      0.038980000000     0.287570000000     0.658520000000     0.031389   
H117     H      0.458240000000     0.227150000000     0.659990000000     0.0385852  
H118     H      0.458370000000     0.200030000000     0.588310000000     0.0754293  
H119     H      0.429010000000     0.217240000000     0.613920000000     0.0626103  
H120     H      0.438800000000     0.236800000000     0.577750000000     0.0733953  
H121     H      0.158400000000     0.029300000000     0.714380000000     0.0266051  
H122     H      0.101060000000     0.027830000000     0.712460000000     0.0296962  
H123     H      0.099020000000     0.476580000000     0.799350000000     0.0381546  
H124     H      0.180680000000     0.485910000000     0.817680000000     0.0742801  
H125     H      0.145120000000     0.465160000000     0.827540000000     0.0642752  
H126     H      0.172190000000     0.447870000000     0.799630000000     0.0782029  
H127     H      0.349830000000     0.474540000000     0.713700000000     0.0278613  
H128     H      0.407270000000     0.475560000000     0.712470000000     0.0292664  
H129     H      0.408530000000     0.034110000000     0.794500000000     0.0372532  
H130     H      0.326110000000     0.029250000000     0.811890000000     0.0719241  
H131     H      0.362520000000     0.048520000000     0.820890000000     0.0627752  
H132     H      0.337450000000     0.064750000000     0.790610000000     0.0772888  
H133     H      0.028140000000     0.349100000000     0.798180000000     0.0262573  
H134     H      0.027420000000     0.406600000000     0.799160000000     0.0299056  
H135     H      0.476960000000     0.407830000000     0.711810000000     0.0382565  
H136     H      0.447550000000     0.334690000000     0.712310000000     0.0786416  
H137     H      0.464830000000     0.361700000000     0.684400000000     0.0647884  
H138     H      0.485720000000     0.326320000000     0.694460000000     0.0752661  
H139     H      0.476600000000     0.157530000000     0.795090000000     0.0277833  
H140     H      0.478820000000     0.100210000000     0.796920000000     0.0304971  
H141     H      0.029450000000     0.098920000000     0.709660000000     0.0377016  
H142     H      0.057180000000     0.171900000000     0.708620000000     0.0781083  
H143     H      0.039040000000     0.145120000000     0.680970000000     0.062932   
H144     H      0.018720000000     0.180680000000     0.691580000000     0.0734306  
H145     H      0.348260000000     0.716710000000     0.033510000000     0.0240118  
H146     H      0.405400000000     0.714320000000     0.031730000000     0.0235879  
H147     H      0.407310000000     0.794030000000     0.470130000000     0.0364297  
H148     H      0.325910000000     0.813050000000     0.476200000000     0.0754568  
H149     H      0.361240000000     0.819480000000     0.453750000000     0.0639563  
H150     H      0.333730000000     0.789740000000     0.440920000000     0.0770095  
H151     H      0.156490000000     0.715360000000     0.538570000000     0.0259627  
H152     H      0.098920000000     0.714200000000     0.537780000000     0.0304421  
H153     H      0.097750000000     0.797200000000     0.480430000000     0.038966   
H154     H      0.179850000000     0.814760000000     0.488560000000     0.0743011  
H155     H      0.169460000000     0.795900000000     0.451340000000     0.0760408  
H156     H      0.143890000000     0.825020000000     0.968900000000     0.0648089  
H157     H      0.220260000000     0.907580000000     0.968580000000     0.0279098  
H158     H      0.222090000000     0.850440000000     0.966570000000     0.0262336  
H159     H      0.279650000000     0.848580000000     0.049360000000     0.0372832  
H160     H      0.273500000000     0.931650000000     0.066830000000     0.0741042  
H161     H      0.291890000000     0.895040000000     0.077070000000     0.0634588  
H162     H      0.309560000000     0.919500000000     0.547010000000     0.0775264  
H163     H      0.208850000000     0.658030000000     0.976680000000     0.0263036  
H164     H      0.207060000000     0.600440000000     0.978910000000     0.0308711  
H165     H      0.298730000000     0.599050000000     0.021080000000     0.0380068  
H166     H      0.302670000000     0.674000000000     0.046670000000     0.0767734  
H167     H      0.327970000000     0.644880000000     0.028780000000     0.0622515  
H168     H      0.316590000000     0.678920000000     0.506260000000     0.0724802  
H169     H      0.218810000000     0.534610000000     0.349770000000     0.0272624  
H170     H      0.216430000000     0.533060000000     0.406850000000     0.0303572  
H171     H      0.295910000000     0.471160000000     0.409390000000     0.0372057  
H172     H      0.314860000000     0.476330000000     0.326800000000     0.0735711  
H173     H      0.322980000000     0.456820000000     0.363350000000     0.0629985  
H174     H      0.292420000000     0.941510000000     0.338000000000     0.0770022  
H175     H      0.280760000000     0.543260000000     0.099510000000     0.0273141  
H176     H      0.281120000000     0.544440000000     0.156850000000     0.0310315  
H177     H      0.217140000000     0.966620000000     0.159410000000     0.0383406  
H178     H      0.219900000000     0.948110000000     0.077740000000     0.0741006  
H179     H      0.198560000000     0.942350000000     0.113780000000     0.0643159  
H180     H      0.186220000000     0.973030000000     0.087080000000     0.079498   
H181     H      0.466120000000     0.782310000000     0.409790000000     0.026717   
H182     H      0.464080000000     0.781200000000     0.352630000000     0.0317901  
H183     H      0.545080000000     0.721170000000     0.350260000000     0.0390829  
H184     H      0.542440000000     0.692720000000     0.423930000000     0.078048   
H185     H      0.571770000000     0.706490000000     0.396370000000     0.064892   
H186     H      0.064650000000     0.728660000000     0.431760000000     0.0751493  
H187     H      0.036250000000     0.790170000000     0.101090000000     0.0268309  
H188     H      0.038980000000     0.787570000000     0.158520000000     0.0314244  
H189     H      0.458240000000     0.727150000000     0.159990000000     0.0385954  
H190     H      0.458370000000     0.700030000000     0.088310000000     0.0753467  
H191     H      0.429010000000     0.717250000000     0.113920000000     0.0625976  
H192     H      0.438800000000     0.736800000000     0.077750000000     0.0733392  
H193     H      0.158400000000     0.529300000000     0.214380000000     0.0270743  
H194     H      0.101060000000     0.527830000000     0.212460000000     0.0301259  
H195     H      0.099020000000     0.976580000000     0.299340000000     0.038669   
H196     H      0.180680000000     0.985910000000     0.317680000000     0.0776289  
H197     H      0.145120000000     0.965160000000     0.327540000000     0.0657155  
H198     H      0.172190000000     0.947870000000     0.299630000000     0.079176   
H199     H      0.349830000000     0.974540000000     0.213710000000     0.0283168  
H200     H      0.407270000000     0.975560000000     0.212470000000     0.029919   
H201     H      0.408530000000     0.534110000000     0.294500000000     0.0374539  
H202     H      0.326110000000     0.529250000000     0.311890000000     0.0734961  
H203     H      0.362520000000     0.548520000000     0.320890000000     0.0634506  
H204     H      0.337450000000     0.564750000000     0.290610000000     0.0774126  
H205     H      0.028140000000     0.849100000000     0.298180000000     0.0263281  
H206     H      0.027420000000     0.906600000000     0.299160000000     0.0304805  
H207     H      0.476960000000     0.907830000000     0.211810000000     0.0389631  
H208     H      0.447550000000     0.834690000000     0.212310000000     0.0787796  
H209     H      0.464830000000     0.861700000000     0.184400000000     0.0651206  
H210     H      0.485720000000     0.826320000000     0.194460000000     0.0753531  
H211     H      0.476600000000     0.657530000000     0.295090000000     0.027661   
H212     H      0.478820000000     0.600210000000     0.296920000000     0.0304627  
H213     H      0.029450000000     0.598920000000     0.209660000000     0.0378282  
H214     H      0.057180000000     0.671900000000     0.208620000000     0.0781214  
H215     H      0.039040000000     0.645120000000     0.180970000000     0.062998   
H216     H      0.018720000000     0.680680000000     0.191580000000     0.0734565  
H217     H      0.348260000000     0.716710000000     0.533510000000     0.0221299  
H218     H      0.405400000000     0.714320000000     0.531730000000     0.0245531  
H219     H      0.407310000000     0.794030000000     0.970130000000     0.0363859  
H220     H      0.325910000000     0.813050000000     0.976190000000     0.0775772  
H221     H      0.361240000000     0.819480000000     0.953750000000     0.0649129  
H222     H      0.333730000000     0.789740000000     0.940920000000     0.0773258  
H223     H      0.156490000000     0.715360000000     0.038570000000     0.0255024  
H224     H      0.098920000000     0.714200000000     0.037780000000     0.0299769  
H225     H      0.097750000000     0.797200000000     0.980430000000     0.039608   
H226     H      0.179850000000     0.814760000000     0.988560000000     0.0770116  
H227     H      0.169460000000     0.795900000000     0.951340000000     0.0768054  
H228     H      0.143890000000     0.825020000000     0.468910000000     0.0633527  
H229     H      0.220260000000     0.907580000000     0.468580000000     0.0275142  
H230     H      0.222090000000     0.850440000000     0.466570000000     0.0265824  
H231     H      0.279650000000     0.848580000000     0.549360000000     0.0374502  
H232     H      0.273500000000     0.931650000000     0.566830000000     0.0741981  
H233     H      0.291890000000     0.895040000000     0.577070000000     0.0638513  
H234     H      0.309560000000     0.919500000000     0.047010000000     0.0765787  
H235     H      0.208850000000     0.658030000000     0.476670000000     0.0237483  
H236     H      0.207060000000     0.600440000000     0.478910000000     0.030615   
H237     H      0.298730000000     0.599050000000     0.521080000000     0.0390229  
H238     H      0.302670000000     0.674000000000     0.546670000000     0.0777384  
H239     H      0.327970000000     0.644880000000     0.528780000000     0.0637048  
H240     H      0.316590000000     0.678920000000     0.006260000000     0.0703021  
H241     H      0.218810000000     0.534610000000     0.849770000000     0.0274857  
H242     H      0.216430000000     0.533060000000     0.906850000000     0.031185   
H243     H      0.295910000000     0.471160000000     0.909390000000     0.0380802  
H244     H      0.314860000000     0.476330000000     0.826800000000     0.0737463  
H245     H      0.322980000000     0.456820000000     0.863350000000     0.0635657  
H246     H      0.292420000000     0.941510000000     0.838000000000     0.0772194  
H247     H      0.280760000000     0.543260000000     0.599510000000     0.0274533  
H248     H      0.281120000000     0.544440000000     0.656850000000     0.0311046  
H249     H      0.217140000000     0.966620000000     0.659410000000     0.0384181  
H250     H      0.219900000000     0.948110000000     0.577740000000     0.0744197  
H251     H      0.198560000000     0.942350000000     0.613780000000     0.0646773  
H252     H      0.186220000000     0.973030000000     0.587080000000     0.0800993  
H253     H      0.466120000000     0.782310000000     0.909800000000     0.0275588  
H254     H      0.464080000000     0.781200000000     0.852640000000     0.032013   
H255     H      0.545080000000     0.721170000000     0.850260000000     0.0392725  
H256     H      0.542440000000     0.692720000000     0.923920000000     0.0795139  
H257     H      0.571770000000     0.706490000000     0.896370000000     0.0656311  
H258     H      0.064650000000     0.728660000000     0.931760000000     0.0766717  
H259     H      0.036250000000     0.790170000000     0.601090000000     0.0271569  
H260     H      0.038980000000     0.787570000000     0.658520000000     0.0315451  
H261     H      0.458240000000     0.727150000000     0.659990000000     0.0386444  
H262     H      0.458370000000     0.700030000000     0.588310000000     0.0756447  
H263     H      0.429010000000     0.717250000000     0.613920000000     0.0627586  
H264     H      0.438800000000     0.736800000000     0.577750000000     0.0734884  
H265     H      0.158400000000     0.529300000000     0.714380000000     0.0271452  
H266     H      0.101060000000     0.527830000000     0.712460000000     0.0302713  
H267     H      0.099020000000     0.976580000000     0.799350000000     0.0388974  
H268     H      0.180680000000     0.985910000000     0.817680000000     0.0778209  
H269     H      0.145120000000     0.965160000000     0.827540000000     0.0661088  
H270     H      0.172190000000     0.947870000000     0.799630000000     0.0793124  
H271     H      0.349830000000     0.974540000000     0.713700000000     0.0283719  
H272     H      0.407270000000     0.975560000000     0.712470000000     0.030041   
H273     H      0.408530000000     0.534110000000     0.794500000000     0.0377068  
H274     H      0.326110000000     0.529250000000     0.811890000000     0.0737145  
H275     H      0.362520000000     0.548520000000     0.820890000000     0.0639312  
H276     H      0.337450000000     0.564750000000     0.790610000000     0.0776161  
H277     H      0.028140000000     0.849100000000     0.798180000000     0.0264864  
H278     H      0.027420000000     0.906600000000     0.799160000000     0.030741   
H279     H      0.476960000000     0.907830000000     0.711810000000     0.0390973  
H280     H      0.447550000000     0.834690000000     0.712310000000     0.0788759  
H281     H      0.464830000000     0.861700000000     0.684400000000     0.0653435  
H282     H      0.485720000000     0.826320000000     0.694460000000     0.0754577  
H283     H      0.476600000000     0.657530000000     0.795090000000     0.0278892  
H284     H      0.478820000000     0.600210000000     0.796920000000     0.0307425  
H285     H      0.029450000000     0.598920000000     0.709660000000     0.0379658  
H286     H      0.057180000000     0.671900000000     0.708620000000     0.0782124  
H287     H      0.039040000000     0.645120000000     0.680970000000     0.0632004  
H288     H      0.018720000000     0.680680000000     0.691580000000     0.0735216  
H289     H      0.848260000000     0.216710000000     0.033510000000     0.0240894  
H290     H      0.905400000000     0.214320000000     0.031730000000     0.0239932  
H291     H      0.907310000000     0.294030000000     0.470130000000     0.0370835  
H292     H      0.825910000000     0.313050000000     0.476200000000     0.0755046  
H293     H      0.861240000000     0.319480000000     0.453750000000     0.0641347  
H294     H      0.833730000000     0.289740000000     0.440920000000     0.077166   
H295     H      0.656490000000     0.215360000000     0.538570000000     0.0260049  
H296     H      0.598920000000     0.214200000000     0.537780000000     0.0307965  
H297     H      0.597750000000     0.297190000000     0.480430000000     0.039012   
H298     H      0.679850000000     0.314760000000     0.488560000000     0.0742126  
H299     H      0.669460000000     0.295900000000     0.451340000000     0.0759852  
H300     H      0.643890000000     0.325020000000     0.968900000000     0.0646705  
H301     H      0.720270000000     0.407580000000     0.968580000000     0.0271241  
H302     H      0.722090000000     0.350440000000     0.966570000000     0.0261071  
H303     H      0.779650000000     0.348580000000     0.049360000000     0.0372438  
H304     H      0.773500000000     0.431650000000     0.066830000000     0.072797   
H305     H      0.791890000000     0.395040000000     0.077070000000     0.0630379  
H306     H      0.809560000000     0.419500000000     0.547010000000     0.0766224  
H307     H      0.708850000000     0.158030000000     0.976680000000     0.0262487  
H308     H      0.707060000000     0.100440000000     0.978910000000     0.0307192  
H309     H      0.798730000000     0.099050000000     0.021080000000     0.037961   
H310     H      0.802670000000     0.174000000000     0.046670000000     0.0768442  
H311     H      0.827970000000     0.144880000000     0.028780000000     0.0624011  
H312     H      0.816590000000     0.178920000000     0.506260000000     0.072601   
H313     H      0.718810000000     0.034610000000     0.349770000000     0.0266692  
H314     H      0.716430000000     0.033060000000     0.406850000000     0.0301143  
H315     H      0.795910000000     0.971160000000     0.409390000000     0.037615   
H316     H      0.814860000000     0.976330000000     0.326800000000     0.0770525  
H317     H      0.822980000000     0.956820000000     0.363350000000     0.0651243  
H318     H      0.792420000000     0.441510000000     0.338000000000     0.0762248  
H319     H      0.780760000000     0.043260000000     0.099510000000     0.0272143  
H320     H      0.781120000000     0.044440000000     0.156850000000     0.0309506  
H321     H      0.717140000000     0.466620000000     0.159410000000     0.0382514  
H322     H      0.719900000000     0.448110000000     0.077740000000     0.0722704  
H323     H      0.698560000000     0.442350000000     0.113780000000     0.0633422  
H324     H      0.686220000000     0.473030000000     0.087080000000     0.0767001  
H325     H      0.966120000000     0.282310000000     0.409790000000     0.0271223  
H326     H      0.964080000000     0.281200000000     0.352630000000     0.0318562  
H327     H      0.045080000000     0.221170000000     0.350260000000     0.0388382  
H328     H      0.042440000000     0.192720000000     0.423930000000     0.0768423  
H329     H      0.071770000000     0.206490000000     0.396370000000     0.064294   
H330     H      0.564650000000     0.228660000000     0.431760000000     0.0751402  
H331     H      0.536250000000     0.290170000000     0.101090000000     0.0266003  
H332     H      0.538980000000     0.287570000000     0.158520000000     0.0305059  
H333     H      0.958240000000     0.227150000000     0.159990000000     0.0397458  
H334     H      0.958370000000     0.200030000000     0.088310000000     0.0767383  
H335     H      0.929010000000     0.217240000000     0.113920000000     0.0632338  
H336     H      0.938800000000     0.236800000000     0.077750000000     0.0738553  
H337     H      0.658400000000     0.029300000000     0.214380000000     0.0266272  
H338     H      0.601060000000     0.027830000000     0.212460000000     0.0297847  
H339     H      0.599020000000     0.476580000000     0.299340000000     0.038161   
H340     H      0.680680000000     0.485910000000     0.317680000000     0.0741529  
H341     H      0.645120000000     0.465160000000     0.327540000000     0.0641108  
H342     H      0.672190000000     0.447870000000     0.299630000000     0.0781543  
H343     H      0.849830000000     0.474540000000     0.213710000000     0.0280407  
H344     H      0.907260000000     0.475560000000     0.212470000000     0.029967   
H345     H      0.908530000000     0.034110000000     0.294500000000     0.0378463  
H346     H      0.826100000000     0.029250000000     0.311890000000     0.0718202  
H347     H      0.862520000000     0.048520000000     0.320890000000     0.0628437  
H348     H      0.837450000000     0.064750000000     0.290610000000     0.077345   
H349     H      0.528140000000     0.349100000000     0.298180000000     0.0265812  
H350     H      0.527420000000     0.406600000000     0.299160000000     0.0301673  
H351     H      0.976960000000     0.407830000000     0.211810000000     0.0388653  
H352     H      0.947550000000     0.334690000000     0.212310000000     0.0795783  
H353     H      0.964830000000     0.361700000000     0.184400000000     0.0663031  
H354     H      0.985720000000     0.326320000000     0.194460000000     0.078538   
H355     H      0.976600000000     0.157530000000     0.295090000000     0.0282334  
H356     H      0.978820000000     0.100210000000     0.296920000000     0.0311188  
H357     H      0.529450000000     0.098920000000     0.209660000000     0.0380215  
H358     H      0.557180000000     0.171900000000     0.208620000000     0.0784069  
H359     H      0.539040000000     0.145120000000     0.180970000000     0.0639111  
H360     H      0.518720000000     0.180680000000     0.191580000000     0.0751336  
H361     H      0.848260000000     0.216710000000     0.533510000000     0.0222109  
H362     H      0.905400000000     0.214320000000     0.531730000000     0.0249557  
H363     H      0.907310000000     0.294030000000     0.970130000000     0.0370397  
H364     H      0.825910000000     0.313050000000     0.976190000000     0.0776244  
H365     H      0.861240000000     0.319480000000     0.953750000000     0.0650904  
H366     H      0.833730000000     0.289740000000     0.940920000000     0.0774817  
H367     H      0.656490000000     0.215360000000     0.038570000000     0.0255456  
H368     H      0.598920000000     0.214200000000     0.037780000000     0.0303316  
H369     H      0.597750000000     0.297190000000     0.980430000000     0.0396551  
H370     H      0.679850000000     0.314760000000     0.988560000000     0.0769253  
H371     H      0.669460000000     0.295900000000     0.951340000000     0.0767506  
H372     H      0.643890000000     0.325020000000     0.468910000000     0.0632109  
H373     H      0.720270000000     0.407580000000     0.468580000000     0.0267246  
H374     H      0.722090000000     0.350440000000     0.466570000000     0.0264547  
H375     H      0.779650000000     0.348580000000     0.549360000000     0.0374101  
H376     H      0.773500000000     0.431650000000     0.566830000000     0.0728897  
H377     H      0.791890000000     0.395040000000     0.577070000000     0.06343    
H378     H      0.809560000000     0.419500000000     0.047010000000     0.0756759  
H379     H      0.708850000000     0.158030000000     0.476670000000     0.0236971  
H380     H      0.707060000000     0.100440000000     0.478910000000     0.0304636  
H381     H      0.798730000000     0.099050000000     0.521080000000     0.0389735  
H382     H      0.802670000000     0.174000000000     0.546670000000     0.0778069  
H383     H      0.827970000000     0.144880000000     0.528780000000     0.0638498  
H384     H      0.816590000000     0.178920000000     0.006260000000     0.0704278  
H385     H      0.718810000000     0.034610000000     0.849770000000     0.026893   
H386     H      0.716430000000     0.033060000000     0.906850000000     0.0309409  
H387     H      0.795910000000     0.971160000000     0.909390000000     0.0384827  
H388     H      0.814860000000     0.976330000000     0.826800000000     0.0772177  
H389     H      0.822980000000     0.956820000000     0.863350000000     0.065681   
H390     H      0.792420000000     0.441510000000     0.838000000000     0.076444   
H391     H      0.780760000000     0.043260000000     0.599510000000     0.0273525  
H392     H      0.781120000000     0.044440000000     0.656850000000     0.0310232  
H393     H      0.717140000000     0.466620000000     0.659410000000     0.0383294  
H394     H      0.719900000000     0.448110000000     0.577740000000     0.0725887  
H395     H      0.698560000000     0.442350000000     0.613780000000     0.0637044  
H396     H      0.686220000000     0.473030000000     0.587080000000     0.0773022  
H397     H      0.966120000000     0.282310000000     0.909800000000     0.0279645  
H398     H      0.964080000000     0.281200000000     0.852640000000     0.0320767  
H399     H      0.045080000000     0.221170000000     0.850260000000     0.0390281  
H400     H      0.042440000000     0.192720000000     0.923920000000     0.0783126  
H401     H      0.071770000000     0.206490000000     0.896370000000     0.0650358  
H402     H      0.564650000000     0.228660000000     0.931760000000     0.0766639  
H403     H      0.536250000000     0.290170000000     0.601090000000     0.0269269  
H404     H      0.538980000000     0.287570000000     0.658520000000     0.0306284  
H405     H      0.958240000000     0.227150000000     0.659990000000     0.0397927  
H406     H      0.958370000000     0.200030000000     0.588310000000     0.0770332  
H407     H      0.929010000000     0.217240000000     0.613920000000     0.0633934  
H408     H      0.938800000000     0.236800000000     0.577750000000     0.0740039  
H409     H      0.658400000000     0.029300000000     0.714380000000     0.0266973  
H410     H      0.601060000000     0.027830000000     0.712460000000     0.0299293  
H411     H      0.599020000000     0.476580000000     0.799350000000     0.0383914  
H412     H      0.680680000000     0.485910000000     0.817680000000     0.0743549  
H413     H      0.645120000000     0.465160000000     0.827540000000     0.0645105  
H414     H      0.672190000000     0.447870000000     0.799630000000     0.0782934  
H415     H      0.849830000000     0.474540000000     0.713700000000     0.0280943  
H416     H      0.907260000000     0.475560000000     0.712470000000     0.030088   
H417     H      0.908530000000     0.034110000000     0.794500000000     0.0380964  
H418     H      0.826100000000     0.029250000000     0.811890000000     0.0720412  
H419     H      0.862520000000     0.048520000000     0.820890000000     0.0633229  
H420     H      0.837450000000     0.064750000000     0.790610000000     0.0775477  
H421     H      0.528140000000     0.349100000000     0.798180000000     0.0267396  
H422     H      0.527420000000     0.406600000000     0.799160000000     0.0304296  
H423     H      0.976960000000     0.407830000000     0.711810000000     0.0389996  
H424     H      0.947550000000     0.334690000000     0.712310000000     0.079673   
H425     H      0.964830000000     0.361700000000     0.684400000000     0.0665236  
H426     H      0.985720000000     0.326320000000     0.694460000000     0.0786366  
H427     H      0.976600000000     0.157530000000     0.795090000000     0.0284578  
H428     H      0.978820000000     0.100210000000     0.796920000000     0.0313933  
H429     H      0.529450000000     0.098920000000     0.709660000000     0.0381588  
H430     H      0.557180000000     0.171900000000     0.708620000000     0.0784974  
H431     H      0.539040000000     0.145120000000     0.680970000000     0.0641127  
H432     H      0.518720000000     0.180680000000     0.691580000000     0.0751975  
H433     H      0.848260000000     0.716710000000     0.033510000000     0.0241191  
H434     H      0.905400000000     0.714320000000     0.031730000000     0.024104   
H435     H      0.907310000000     0.794030000000     0.470130000000     0.037288   
H436     H      0.825910000000     0.813050000000     0.476200000000     0.0756942  
H437     H      0.861240000000     0.819480000000     0.453750000000     0.0644777  
H438     H      0.833730000000     0.789740000000     0.440920000000     0.0772858  
H439     H      0.656490000000     0.715360000000     0.538570000000     0.0260904  
H440     H      0.598920000000     0.714200000000     0.537780000000     0.0309349  
H441     H      0.597750000000     0.797200000000     0.480430000000     0.0392251  
H442     H      0.679850000000     0.814760000000     0.488560000000     0.0743831  
H443     H      0.669460000000     0.795900000000     0.451340000000     0.0761238  
H444     H      0.643890000000     0.825020000000     0.968900000000     0.0650627  
H445     H      0.720270000000     0.907580000000     0.968580000000     0.0280035  
H446     H      0.722090000000     0.850440000000     0.966570000000     0.0262801  
H447     H      0.779650000000     0.848580000000     0.049360000000     0.0373904  
H448     H      0.773500000000     0.931650000000     0.066830000000     0.0742139  
H449     H      0.791890000000     0.895040000000     0.077070000000     0.0636831  
H450     H      0.809560000000     0.919500000000     0.547010000000     0.0779232  
H451     H      0.708850000000     0.658030000000     0.976680000000     0.0263653  
H452     H      0.707060000000     0.600440000000     0.978910000000     0.0310361  
H453     H      0.798730000000     0.599050000000     0.021080000000     0.0382577  
H454     H      0.802670000000     0.674000000000     0.046670000000     0.0769222  
H455     H      0.827970000000     0.644880000000     0.028780000000     0.0626868  
H456     H      0.816590000000     0.678920000000     0.506260000000     0.0726935  
H457     H      0.718810000000     0.534610000000     0.349770000000     0.0273279  
H458     H      0.716430000000     0.533060000000     0.406850000000     0.0304729  
H459     H      0.795910000000     0.471160000000     0.409390000000     0.0374465  
H460     H      0.814860000000     0.476330000000     0.326800000000     0.0737903  
H461     H      0.822980000000     0.456820000000     0.363350000000     0.0634514  
H462     H      0.792420000000     0.941510000000     0.338000000000     0.0771687  
H463     H      0.780760000000     0.543260000000     0.099510000000     0.0274964  
H464     H      0.781120000000     0.544440000000     0.156850000000     0.0311934  
H465     H      0.717140000000     0.966620000000     0.159410000000     0.0384113  
H466     H      0.719900000000     0.948110000000     0.077740000000     0.0741799  
H467     H      0.698560000000     0.942350000000     0.113780000000     0.0644945  
H468     H      0.686220000000     0.973030000000     0.087080000000     0.0797546  
H469     H      0.966120000000     0.782310000000     0.409790000000     0.0272862  
H470     H      0.964080000000     0.781200000000     0.352630000000     0.0319926  
H471     H      0.045080000000     0.721170000000     0.350260000000     0.038914   
H472     H      0.042440000000     0.692720000000     0.423930000000     0.077099   
H473     H      0.071770000000     0.706490000000     0.396370000000     0.0644672  
H474     H      0.564650000000     0.728660000000     0.431760000000     0.0752383  
H475     H      0.536250000000     0.790170000000     0.101090000000     0.0268161  
H476     H      0.538980000000     0.787570000000     0.158520000000     0.0306633  
H477     H      0.958240000000     0.727150000000     0.159990000000     0.0398031  
H478     H      0.958370000000     0.700030000000     0.088310000000     0.0769499  
H479     H      0.929010000000     0.717250000000     0.113920000000     0.0633804  
H480     H      0.938800000000     0.736800000000     0.077750000000     0.073947   
H481     H      0.658400000000     0.529300000000     0.214380000000     0.0271665  
H482     H      0.601060000000     0.527830000000     0.212460000000     0.0303597  
H483     H      0.599020000000     0.976580000000     0.299340000000     0.0389055  
H484     H      0.680680000000     0.985910000000     0.317680000000     0.077698   
H485     H      0.645120000000     0.965160000000     0.327540000000     0.0659488  
H486     H      0.672190000000     0.947870000000     0.299630000000     0.0792653  
H487     H      0.849830000000     0.974540000000     0.213710000000     0.0285475  
H488     H      0.907260000000     0.975560000000     0.212470000000     0.0307341  
H489     H      0.908530000000     0.534110000000     0.294500000000     0.0382997  
H490     H      0.826100000000     0.529250000000     0.311890000000     0.0736098  
H491     H      0.862520000000     0.548520000000     0.320890000000     0.063999   
H492     H      0.837450000000     0.564750000000     0.290610000000     0.0776714  
H493     H      0.528140000000     0.849100000000     0.298180000000     0.0268109  
H494     H      0.527420000000     0.906600000000     0.299160000000     0.0310048  
H495     H      0.976960000000     0.907830000000     0.211810000000     0.0397005  
H496     H      0.947550000000     0.834690000000     0.212310000000     0.079809   
H497     H      0.964830000000     0.861700000000     0.184400000000     0.0668506  
H498     H      0.985720000000     0.826320000000     0.194460000000     0.0787189  
H499     H      0.976600000000     0.657530000000     0.295090000000     0.0283381  
H500     H      0.978820000000     0.600210000000     0.296920000000     0.0313612  
H501     H      0.529450000000     0.598920000000     0.209660000000     0.0382862  
H502     H      0.557180000000     0.671900000000     0.208620000000     0.0785106  
H503     H      0.539040000000     0.645120000000     0.180970000000     0.0641792  
H504     H      0.518720000000     0.680680000000     0.191580000000     0.0752233  
H505     H      0.848260000000     0.716710000000     0.533510000000     0.0222438  
H506     H      0.905400000000     0.714320000000     0.531730000000     0.0250662  
H507     H      0.907310000000     0.794030000000     0.970130000000     0.0372422  
H508     H      0.825910000000     0.813050000000     0.976190000000     0.0778068  
H509     H      0.861240000000     0.819480000000     0.953750000000     0.0654286  
H510     H      0.833730000000     0.789740000000     0.940920000000     0.0776005  
H511     H      0.656490000000     0.715360000000     0.038570000000     0.0256303  
H512     H      0.598920000000     0.714200000000     0.037780000000     0.0304692  
H513     H      0.597750000000     0.797200000000     0.980430000000     0.0398659  
H514     H      0.679850000000     0.814760000000     0.988560000000     0.0770878  
H515     H      0.669460000000     0.795900000000     0.951340000000     0.0768871  
H516     H      0.643890000000     0.825020000000     0.468910000000     0.0636095  
H517     H      0.720270000000     0.907580000000     0.468580000000     0.0276093  
H518     H      0.722090000000     0.850440000000     0.466570000000     0.0266277  
H519     H      0.779650000000     0.848580000000     0.549360000000     0.0375566  
H520     H      0.773500000000     0.931650000000     0.566830000000     0.0743075  
H521     H      0.791890000000     0.895040000000     0.577070000000     0.0640746  
H522     H      0.809560000000     0.919500000000     0.047010000000     0.0769778  
H523     H      0.708850000000     0.658030000000     0.476670000000     0.0238158  
H524     H      0.707060000000     0.600440000000     0.478910000000     0.0307812  
H525     H      0.798730000000     0.599050000000     0.521080000000     0.0392715  
H526     H      0.802670000000     0.674000000000     0.546670000000     0.0778847  
H527     H      0.827970000000     0.644880000000     0.528780000000     0.064137   
H528     H      0.816590000000     0.678920000000     0.006260000000     0.0705198  
H529     H      0.718810000000     0.534610000000     0.849770000000     0.0275507  
H530     H      0.716430000000     0.533060000000     0.906850000000     0.031299   
H531     H      0.795910000000     0.471160000000     0.909390000000     0.0383171  
H532     H      0.814860000000     0.476330000000     0.826800000000     0.0739641  
H533     H      0.822980000000     0.456820000000     0.863350000000     0.0640149  
H534     H      0.792420000000     0.941510000000     0.838000000000     0.0773847  
H535     H      0.780760000000     0.543260000000     0.599510000000     0.0276352  
H536     H      0.781120000000     0.544440000000     0.656850000000     0.0312662  
H537     H      0.717140000000     0.966620000000     0.659410000000     0.0384888  
H538     H      0.719900000000     0.948110000000     0.577740000000     0.0744989  
H539     H      0.698560000000     0.942350000000     0.613780000000     0.0648559  
H540     H      0.686220000000     0.973030000000     0.587080000000     0.0803562  
H541     H      0.966120000000     0.782310000000     0.909800000000     0.0281261  
H542     H      0.964080000000     0.781200000000     0.852640000000     0.0322122  
H543     H      0.045080000000     0.721170000000     0.850260000000     0.0391036  
H544     H      0.042440000000     0.692720000000     0.923920000000     0.0785674  
H545     H      0.071770000000     0.706490000000     0.896370000000     0.0652079  
H546     H      0.564650000000     0.728660000000     0.931760000000     0.0767597  
H547     H      0.536250000000     0.790170000000     0.601090000000     0.027142   
H548     H      0.538980000000     0.787570000000     0.658520000000     0.0307855  
H549     H      0.958240000000     0.727150000000     0.659990000000     0.03985    
H550     H      0.958370000000     0.700030000000     0.588310000000     0.0772457  
H551     H      0.929010000000     0.717250000000     0.613920000000     0.0635402  
H552     H      0.938800000000     0.736800000000     0.577750000000     0.0740954  
H553     H      0.658400000000     0.529300000000     0.714380000000     0.0272374  
H554     H      0.601060000000     0.527830000000     0.712460000000     0.0305052  
H555     H      0.599020000000     0.976580000000     0.799350000000     0.0391334  
H556     H      0.680680000000     0.985910000000     0.817680000000     0.0778897  
H557     H      0.645120000000     0.965160000000     0.827540000000     0.0663412  
H558     H      0.672190000000     0.947870000000     0.799630000000     0.0794013  
H559     H      0.849830000000     0.974540000000     0.713700000000     0.0286023  
H560     H      0.907260000000     0.975560000000     0.712470000000     0.0308544  
H561     H      0.908530000000     0.534110000000     0.794500000000     0.0385489  
H562     H      0.826100000000     0.529250000000     0.811890000000     0.0738267  
H563     H      0.862520000000     0.548520000000     0.820890000000     0.0644757  
H564     H      0.837450000000     0.564750000000     0.790610000000     0.0778734  
H565     H      0.528140000000     0.849100000000     0.798180000000     0.0269681  
H566     H      0.527420000000     0.906600000000     0.799160000000     0.031264   
H567     H      0.976960000000     0.907830000000     0.711810000000     0.0398338  
H568     H      0.947550000000     0.834690000000     0.712310000000     0.0799032  
H569     H      0.964830000000     0.861700000000     0.684400000000     0.0670705  
H570     H      0.985720000000     0.826320000000     0.694460000000     0.0788172  
H571     H      0.976600000000     0.657530000000     0.795090000000     0.0285622  
H572     H      0.978820000000     0.600210000000     0.796920000000     0.0316352  
H573     H      0.529450000000     0.598920000000     0.709660000000     0.0384241  
H574     H      0.557180000000     0.671900000000     0.708620000000     0.0786012  
H575     H      0.539040000000     0.645120000000     0.680970000000     0.0643815  
H576     H      0.518720000000     0.680680000000     0.691580000000     0.0752876  
N1       N      0.410110000000     0.254120000000     0.500840000000    -0.185586   
N2       N      0.344360000000     0.254540000000     0.999970000000    -0.194612   
N3       N      0.094400000000     0.255560000000     0.508850000000    -0.184889   
N4       N      0.160160000000     0.255700000000     0.008190000000    -0.208259   
N5       N      0.251000000000     0.345620000000     0.507950000000    -0.185767   
N6       N      0.250910000000     0.411420000000     0.508770000000    -0.205422   
N7       N      0.252730000000     0.095770000000     0.500420000000    -0.184158   
N8       N      0.253920000000     0.161470000000     0.499370000000    -0.205783   
N9       N      0.256080000000     0.501930000000     0.411940000000    -0.185468   
N10      N      0.257530000000     0.502080000000     0.346110000000    -0.205043   
N11      N      0.249460000000     0.505260000000     0.161930000000    -0.184929   
N12      N      0.247160000000     0.005440000000     0.096160000000    -0.209401   
N13      N      0.504560000000     0.251140000000     0.347530000000    -0.184161   
N14      N      0.505630000000     0.250760000000     0.413350000000    -0.205486   
N15      N      0.498970000000     0.256840000000     0.163170000000    -0.185005   
N16      N      0.996920000000     0.258500000000     0.097400000000    -0.202567   
N17      N      0.096160000000     0.002120000000     0.255860000000    -0.188958   
N18      N      0.161880000000     0.001960000000     0.256900000000    -0.20818    
N19      N      0.411670000000     0.004760000000     0.253610000000    -0.189696   
N20      N      0.345900000000     0.005550000000     0.253620000000    -0.207383   
N21      N      0.002180000000     0.411080000000     0.255440000000    -0.188999   
N22      N      0.001050000000     0.345370000000     0.255550000000    -0.208052   
N23      N      0.004360000000     0.095660000000     0.253370000000    -0.188767   
N24      N      0.003540000000     0.161430000000     0.252350000000    -0.207545   
N25      N      0.410110000000     0.254120000000     0.000840000000    -0.19068    
N26      N      0.344360000000     0.254540000000     0.499970000000    -0.205131   
N27      N      0.094400000000     0.255560000000     0.008850000000    -0.188856   
N28      N      0.160160000000     0.255700000000     0.508190000000    -0.205521   
N29      N      0.251000000000     0.345620000000     0.007950000000    -0.188522   
N30      N      0.250910000000     0.411420000000     0.008770000000    -0.209358   
N31      N      0.252730000000     0.095770000000     0.000420000000    -0.189254   
N32      N      0.253920000000     0.161470000000     0.999370000000    -0.195072   
N33      N      0.256080000000     0.501930000000     0.911950000000    -0.184949   
N34      N      0.257530000000     0.502080000000     0.846110000000    -0.205045   
N35      N      0.249460000000     0.505260000000     0.661930000000    -0.184901   
N36      N      0.247160000000     0.005440000000     0.596160000000    -0.209509   
N37      N      0.504560000000     0.251140000000     0.847530000000    -0.18409    
N38      N      0.505630000000     0.250760000000     0.913350000000    -0.205017   
N39      N      0.498970000000     0.256840000000     0.663170000000    -0.184986   
N40      N      0.996920000000     0.258500000000     0.597400000000    -0.202651   
N41      N      0.096160000000     0.002120000000     0.755860000000    -0.188834   
N42      N      0.161880000000     0.001960000000     0.756900000000    -0.208194   
N43      N      0.411670000000     0.004760000000     0.753610000000    -0.189631   
N44      N      0.345900000000     0.005550000000     0.753620000000    -0.207399   
N45      N      0.002180000000     0.411080000000     0.755440000000    -0.188927   
N46      N      0.001050000000     0.345370000000     0.755540000000    -0.208084   
N47      N      0.004360000000     0.095660000000     0.753380000000    -0.188712   
N48      N      0.003540000000     0.161430000000     0.752350000000    -0.207546   
N49      N      0.410110000000     0.754120000000     0.500840000000    -0.18554    
N50      N      0.344360000000     0.754540000000     0.999970000000    -0.194642   
N51      N      0.094400000000     0.755560000000     0.508850000000    -0.184849   
N52      N      0.160160000000     0.755700000000     0.008190000000    -0.208261   
N53      N      0.251000000000     0.845620000000     0.507950000000    -0.185734   
N54      N      0.250910000000     0.911420000000     0.508770000000    -0.204903   
N55      N      0.252730000000     0.595770000000     0.500420000000    -0.184279   
N56      N      0.253920000000     0.661470000000     0.499370000000    -0.205775   
N57      N      0.256080000000     0.001930000000     0.411940000000    -0.188012   
N58      N      0.257530000000     0.002070000000     0.346110000000    -0.20805    
N59      N      0.249460000000     0.005260000000     0.161930000000    -0.187685   
N60      N      0.247160000000     0.505440000000     0.096160000000    -0.205224   
N61      N      0.504560000000     0.751140000000     0.347530000000    -0.18414    
N62      N      0.505630000000     0.750760000000     0.413350000000    -0.205463   
N63      N      0.498970000000     0.756840000000     0.163170000000    -0.184988   
N64      N      0.996920000000     0.758500000000     0.097400000000    -0.202548   
N65      N      0.096160000000     0.502120000000     0.255860000000    -0.184811   
N66      N      0.161880000000     0.501960000000     0.256900000000    -0.205207   
N67      N      0.411670000000     0.504750000000     0.253610000000    -0.185469   
N68      N      0.345900000000     0.505550000000     0.253620000000    -0.204686   
N69      N      0.002180000000     0.911080000000     0.255440000000    -0.188357   
N70      N      0.001050000000     0.845370000000     0.255550000000    -0.208047   
N71      N      0.004360000000     0.595660000000     0.253370000000    -0.188845   
N72      N      0.003540000000     0.661430000000     0.252350000000    -0.207526   
N73      N      0.410110000000     0.754120000000     0.000840000000    -0.190626   
N74      N      0.344360000000     0.754540000000     0.499970000000    -0.205146   
N75      N      0.094400000000     0.755560000000     0.008850000000    -0.188809   
N76      N      0.160160000000     0.755700000000     0.508190000000    -0.205528   
N77      N      0.251000000000     0.845620000000     0.007950000000    -0.18848    
N78      N      0.250910000000     0.911420000000     0.008770000000    -0.208826   
N79      N      0.252730000000     0.595770000000     0.000420000000    -0.189376   
N80      N      0.253920000000     0.661470000000     0.999370000000    -0.19507    
N81      N      0.256080000000     0.001930000000     0.911950000000    -0.187484   
N82      N      0.257530000000     0.002070000000     0.846110000000    -0.208043   
N83      N      0.249460000000     0.005260000000     0.661930000000    -0.187659   
N84      N      0.247160000000     0.505440000000     0.596160000000    -0.205329   
N85      N      0.504560000000     0.751140000000     0.847530000000    -0.184069   
N86      N      0.505630000000     0.750760000000     0.913350000000    -0.204995   
N87      N      0.498970000000     0.756840000000     0.663170000000    -0.184968   
N88      N      0.996920000000     0.758500000000     0.597400000000    -0.202632   
N89      N      0.096160000000     0.502120000000     0.755860000000    -0.184693   
N90      N      0.161880000000     0.501960000000     0.756900000000    -0.205226   
N91      N      0.411670000000     0.504750000000     0.753610000000    -0.185409   
N92      N      0.345900000000     0.505550000000     0.753620000000    -0.204705   
N93      N      0.002180000000     0.911080000000     0.755440000000    -0.188286   
N94      N      0.001050000000     0.845370000000     0.755540000000    -0.208078   
N95      N      0.004360000000     0.595660000000     0.753380000000    -0.18879    
N96      N      0.003540000000     0.661430000000     0.752350000000    -0.207527   
N97      N      0.910110000000     0.254120000000     0.500840000000    -0.18493    
N98      N      0.844360000000     0.254540000000     0.999970000000    -0.194667   
N99      N      0.594400000000     0.255560000000     0.508850000000    -0.184988   
N100     N      0.660160000000     0.255700000000     0.008190000000    -0.208246   
N101     N      0.751000000000     0.345620000000     0.507950000000    -0.185747   
N102     N      0.750910000000     0.411420000000     0.508770000000    -0.205406   
N103     N      0.752730000000     0.095770000000     0.500420000000    -0.184145   
N104     N      0.753920000000     0.161470000000     0.499370000000    -0.2058     
N105     N      0.756080000000     0.501930000000     0.411940000000    -0.185421   
N106     N      0.757530000000     0.502080000000     0.346110000000    -0.205055   
N107     N      0.749460000000     0.505260000000     0.161930000000    -0.184905   
N108     N      0.747160000000     0.005440000000     0.096160000000    -0.209377   
N109     N      0.004560000000     0.251140000000     0.347530000000    -0.186881   
N110     N      0.005630000000     0.250760000000     0.413350000000    -0.209396   
N111     N      0.998970000000     0.256840000000     0.163170000000    -0.175059   
N112     N      0.496920000000     0.258500000000     0.097400000000    -0.20549    
N113     N      0.596160000000     0.002120000000     0.255860000000    -0.189026   
N114     N      0.661880000000     0.001960000000     0.256900000000    -0.208172   
N115     N      0.911670000000     0.004760000000     0.253610000000    -0.189059   
N116     N      0.845900000000     0.005550000000     0.253620000000    -0.207362   
N117     N      0.502180000000     0.411080000000     0.255440000000    -0.18494    
N118     N      0.501050000000     0.345370000000     0.255550000000    -0.205207   
N119     N      0.504360000000     0.095660000000     0.253370000000    -0.184655   
N120     N      0.503540000000     0.161430000000     0.252350000000    -0.204943   
N121     N      0.910110000000     0.254120000000     0.000840000000    -0.190002   
N122     N      0.844360000000     0.254540000000     0.499970000000    -0.20515    
N123     N      0.594400000000     0.255560000000     0.008850000000    -0.188953   
N124     N      0.660160000000     0.255700000000     0.508190000000    -0.205511   
N125     N      0.751000000000     0.345620000000     0.007950000000    -0.188497   
N126     N      0.750910000000     0.411420000000     0.008770000000    -0.209335   
N127     N      0.752730000000     0.095770000000     0.000420000000    -0.189229   
N128     N      0.753920000000     0.161470000000     0.999370000000    -0.195115   
N129     N      0.756080000000     0.501930000000     0.911950000000    -0.184904   
N130     N      0.757530000000     0.502080000000     0.846110000000    -0.205057   
N131     N      0.749460000000     0.505260000000     0.661930000000    -0.184878   
N132     N      0.747160000000     0.005440000000     0.596160000000    -0.209484   
N133     N      0.004560000000     0.251140000000     0.847530000000    -0.186799   
N134     N      0.005630000000     0.250760000000     0.913350000000    -0.208907   
N135     N      0.998970000000     0.256840000000     0.663170000000    -0.175054   
N136     N      0.496920000000     0.258500000000     0.597400000000    -0.205571   
N137     N      0.596160000000     0.002120000000     0.755860000000    -0.1889     
N138     N      0.661880000000     0.001960000000     0.756900000000    -0.208186   
N139     N      0.911670000000     0.004760000000     0.753610000000    -0.188996   
N140     N      0.845900000000     0.005550000000     0.753620000000    -0.207377   
N141     N      0.502180000000     0.411080000000     0.755440000000    -0.184876   
N142     N      0.501050000000     0.345370000000     0.755540000000    -0.205242   
N143     N      0.504360000000     0.095660000000     0.753380000000    -0.184607   
N144     N      0.503540000000     0.161430000000     0.752350000000    -0.204951   
N145     N      0.910110000000     0.754120000000     0.500840000000    -0.184885   
N146     N      0.844360000000     0.754540000000     0.999970000000    -0.194698   
N147     N      0.594400000000     0.755560000000     0.508850000000    -0.184948   
N148     N      0.660160000000     0.755700000000     0.008190000000    -0.208248   
N149     N      0.751000000000     0.845620000000     0.507950000000    -0.185714   
N150     N      0.750910000000     0.911420000000     0.508770000000    -0.204888   
N151     N      0.752730000000     0.595770000000     0.500420000000    -0.184266   
N152     N      0.753920000000     0.661470000000     0.499370000000    -0.205792   
N153     N      0.756080000000     0.001930000000     0.411940000000    -0.18796    
N154     N      0.757530000000     0.002070000000     0.346110000000    -0.208056   
N155     N      0.749460000000     0.005260000000     0.161930000000    -0.187657   
N156     N      0.747160000000     0.505440000000     0.096160000000    -0.205206   
N157     N      0.004560000000     0.751140000000     0.347530000000    -0.186854   
N158     N      0.005630000000     0.750760000000     0.413350000000    -0.209365   
N159     N      0.998970000000     0.756840000000     0.163170000000    -0.175064   
N160     N      0.496920000000     0.758500000000     0.097400000000    -0.205464   
N161     N      0.596160000000     0.502120000000     0.255860000000    -0.184879   
N162     N      0.661880000000     0.501960000000     0.256900000000    -0.2052     
N163     N      0.911670000000     0.504750000000     0.253610000000    -0.18485    
N164     N      0.845900000000     0.505550000000     0.253620000000    -0.204674   
N165     N      0.502180000000     0.911080000000     0.255440000000    -0.184314   
N166     N      0.501050000000     0.845370000000     0.255550000000    -0.205212   
N167     N      0.504360000000     0.595660000000     0.253370000000    -0.184732   
N168     N      0.503540000000     0.661430000000     0.252350000000    -0.204925   
N169     N      0.910110000000     0.754120000000     0.000840000000    -0.18995    
N170     N      0.844360000000     0.754540000000     0.499970000000    -0.205164   
N171     N      0.594400000000     0.755560000000     0.008850000000    -0.188906   
N172     N      0.660160000000     0.755700000000     0.508190000000    -0.205517   
N173     N      0.751000000000     0.845620000000     0.007950000000    -0.188455   
N174     N      0.750910000000     0.911420000000     0.008770000000    -0.208803   
N175     N      0.752730000000     0.595770000000     0.000420000000    -0.18935    
N176     N      0.753920000000     0.661470000000     0.999370000000    -0.195113   
N177     N      0.756080000000     0.001930000000     0.911950000000    -0.187433   
N178     N      0.757530000000     0.002070000000     0.846110000000    -0.208049   
N179     N      0.749460000000     0.005260000000     0.661930000000    -0.187631   
N180     N      0.747160000000     0.505440000000     0.596160000000    -0.205311   
N181     N      0.004560000000     0.751140000000     0.847530000000    -0.186773   
N182     N      0.005630000000     0.750760000000     0.913350000000    -0.208877   
N183     N      0.998970000000     0.756840000000     0.663170000000    -0.175058   
N184     N      0.496920000000     0.758500000000     0.597400000000    -0.205545   
N185     N      0.596160000000     0.502120000000     0.755860000000    -0.18476    
N186     N      0.661880000000     0.501960000000     0.756900000000    -0.20522    
N187     N      0.911670000000     0.504750000000     0.753610000000    -0.184791   
N188     N      0.845900000000     0.505550000000     0.753620000000    -0.204692   
N189     N      0.502180000000     0.911080000000     0.755440000000    -0.184252   
N190     N      0.501050000000     0.845370000000     0.755540000000    -0.205246   
N191     N      0.504360000000     0.595660000000     0.753380000000    -0.184684   
N192     N      0.503540000000     0.661430000000     0.752350000000    -0.204933   
O1       O      0.503200000000     0.458180000000     0.228630000000    -0.557088   
O2       O      0.005080000000     0.047940000000     0.227580000000    -0.555233   
O3       O      0.049140000000     0.503060000000     0.228740000000    -0.554129   
O4       O      0.459220000000     0.002930000000     0.227550000000    -0.556432   
O5       O      0.458720000000     0.504890000000     0.280450000000    -0.557052   
O6       O      0.048450000000     0.002410000000     0.281640000000    -0.556556   
O7       O      0.503760000000     0.048600000000     0.280480000000    -0.553852   
O8       O      0.003330000000     0.458670000000     0.281550000000    -0.555503   
O9       O      0.476910000000     0.208130000000     0.258950000000    -0.55516    
O10      O      0.475260000000     0.297790000000     0.253060000000    -0.558348   
O11      O      0.474770000000     0.250230000000     0.211290000000    -0.557449   
O12      O      0.477300000000     0.255840000000     0.300870000000    -0.555326   
O13      O      0.029590000000     0.248400000000     0.299300000000    -0.54673    
O14      O      0.026790000000     0.259390000000     0.209870000000    -0.547624   
O15      O      0.027680000000     0.298500000000     0.259950000000    -0.550158   
O16      O      0.028830000000     0.209270000000     0.249060000000    -0.552808   
O17      O      0.299040000000     0.478730000000     0.248090000000    -0.55356    
O18      O      0.209740000000     0.476560000000     0.259240000000    -0.554884   
O19      O      0.248510000000     0.478290000000     0.208980000000    -0.553028   
O20      O      0.260080000000     0.476730000000     0.298110000000    -0.558415   
O21      O      0.250940000000     0.028760000000     0.299310000000    -0.554225   
O22      O      0.255670000000     0.030660000000     0.209500000000    -0.550301   
O23      O      0.208460000000     0.028900000000     0.251840000000    -0.553471   
O24      O      0.298010000000     0.030800000000     0.257020000000    -0.557066   
O25      O      0.275520000000     0.507510000000     0.050210000000    -0.558487   
O26      O      0.280110000000     0.999100000000     0.460730000000    -0.537852   
O27      O      0.278360000000     0.048010000000     0.002210000000    -0.55535    
O28      O      0.277450000000     0.458650000000     0.510110000000    -0.56058    
O29      O      0.225240000000     0.458710000000     0.001840000000    -0.558469   
O30      O      0.225490000000     0.048720000000     0.502230000000    -0.551469   
O31      O      0.227610000000     0.504640000000     0.457800000000    -0.558734   
O32      O      0.222930000000     0.002910000000     0.047460000000    -0.558615   
O33      O      0.497830000000     0.230340000000     0.051340000000    -0.559694   
O34      O      0.006800000000     0.226340000000     0.461980000000    -0.554793   
O35      O      0.047140000000     0.228830000000     0.011300000000    -0.553003   
O36      O      0.457520000000     0.227950000000     0.503430000000    -0.555367   
O37      O      0.457120000000     0.280880000000     0.002690000000    -0.558034   
O38      O      0.046850000000     0.281190000000     0.504060000000    -0.556937   
O39      O      0.502050000000     0.278950000000     0.459240000000    -0.559693   
O40      O      0.001840000000     0.283040000000     0.049100000000    -0.559871   
O41      O      0.254370000000     0.207160000000     0.027960000000    -0.555665   
O42      O      0.253980000000     0.296980000000     0.032280000000    -0.550159   
O43      O      0.208590000000     0.251260000000     0.032330000000    -0.551249   
O44      O      0.298380000000     0.251660000000     0.028130000000    -0.555621   
O45      O      0.295740000000     0.255780000000     0.475430000000    -0.556756   
O46      O      0.205970000000     0.255320000000     0.479600000000    -0.561497   
O47      O      0.249910000000     0.299610000000     0.479580000000    -0.561855   
O48      O      0.250320000000     0.209860000000     0.475200000000    -0.554308   
O49      O      0.503200000000     0.458180000000     0.728630000000    -0.556952   
O50      O      0.005080000000     0.047940000000     0.727580000000    -0.555116   
O51      O      0.049140000000     0.503060000000     0.728740000000    -0.553921   
O52      O      0.459220000000     0.002930000000     0.727550000000    -0.556302   
O53      O      0.458720000000     0.504890000000     0.780450000000    -0.556843   
O54      O      0.048450000000     0.002410000000     0.781650000000    -0.556159   
O55      O      0.503760000000     0.048600000000     0.780480000000    -0.553642   
O56      O      0.003330000000     0.458670000000     0.781550000000    -0.555301   
O57      O      0.476910000000     0.208130000000     0.758950000000    -0.555123   
O58      O      0.475260000000     0.297790000000     0.753060000000    -0.558326   
O59      O      0.474770000000     0.250230000000     0.711290000000    -0.55745    
O60      O      0.477300000000     0.255840000000     0.800870000000    -0.555225   
O61      O      0.029590000000     0.248400000000     0.799300000000    -0.546669   
O62      O      0.026790000000     0.259390000000     0.709870000000    -0.547631   
O63      O      0.027680000000     0.298500000000     0.759950000000    -0.55014    
O64      O      0.028830000000     0.209270000000     0.749070000000    -0.552846   
O65      O      0.299040000000     0.478730000000     0.748090000000    -0.553541   
O66      O      0.209740000000     0.476560000000     0.759240000000    -0.554886   
O67      O      0.248510000000     0.478290000000     0.708980000000    -0.553015   
O68      O      0.260080000000     0.476730000000     0.798110000000    -0.558392   
O69      O      0.250940000000     0.028760000000     0.799310000000    -0.554132   
O70      O      0.255670000000     0.030660000000     0.709500000000    -0.550304   
O71      O      0.208460000000     0.028900000000     0.751850000000    -0.55348    
O72      O      0.298010000000     0.030800000000     0.757020000000    -0.557062   
O73      O      0.275520000000     0.507510000000     0.550210000000    -0.55995    
O74      O      0.280110000000     0.999100000000     0.960730000000    -0.531394   
O75      O      0.278360000000     0.048010000000     0.502210000000    -0.554889   
O76      O      0.277450000000     0.458650000000     0.010110000000    -0.56086    
O77      O      0.225240000000     0.458710000000     0.501840000000    -0.557079   
O78      O      0.225490000000     0.048720000000     0.002230000000    -0.55284    
O79      O      0.227610000000     0.504640000000     0.957800000000    -0.552349   
O80      O      0.222930000000     0.002910000000     0.547460000000    -0.559953   
O81      O      0.497830000000     0.230340000000     0.551340000000    -0.561177   
O82      O      0.006800000000     0.226340000000     0.961980000000    -0.548363   
O83      O      0.047140000000     0.228830000000     0.511300000000    -0.552671   
O84      O      0.457520000000     0.227950000000     0.003430000000    -0.555864   
O85      O      0.457120000000     0.280880000000     0.502690000000    -0.55672    
O86      O      0.046850000000     0.281190000000     0.004060000000    -0.55843    
O87      O      0.502050000000     0.278950000000     0.959240000000    -0.553302   
O88      O      0.001840000000     0.283040000000     0.549100000000    -0.561121   
O89      O      0.254370000000     0.207160000000     0.527960000000    -0.560144   
O90      O      0.253980000000     0.296980000000     0.532290000000    -0.552657   
O91      O      0.208590000000     0.251260000000     0.532330000000    -0.553944   
O92      O      0.298380000000     0.251660000000     0.528130000000    -0.560076   
O93      O      0.295740000000     0.255780000000     0.975430000000    -0.548244   
O94      O      0.205970000000     0.255320000000     0.979600000000    -0.554751   
O95      O      0.249910000000     0.299610000000     0.979580000000    -0.555312   
O96      O      0.250320000000     0.209860000000     0.975200000000    -0.545571   
O97      O      0.503200000000     0.958170000000     0.228630000000    -0.550141   
O98      O      0.005080000000     0.547940000000     0.227580000000    -0.556719   
O99      O      0.049140000000     0.003060000000     0.228740000000    -0.554486   
O100     O      0.459220000000     0.502930000000     0.227550000000    -0.555089   
O101     O      0.458720000000     0.004890000000     0.280450000000    -0.557475   
O102     O      0.048450000000     0.502410000000     0.281640000000    -0.555116   
O103     O      0.503760000000     0.548600000000     0.280480000000    -0.555263   
O104     O      0.003330000000     0.958670000000     0.281550000000    -0.548758   
O105     O      0.476910000000     0.708130000000     0.258950000000    -0.554933   
O106     O      0.475260000000     0.797790000000     0.253060000000    -0.55846    
O107     O      0.474770000000     0.750230000000     0.211290000000    -0.557409   
O108     O      0.477300000000     0.755840000000     0.300870000000    -0.555292   
O109     O      0.029590000000     0.748400000000     0.299300000000    -0.546738   
O110     O      0.026790000000     0.759390000000     0.209870000000    -0.547633   
O111     O      0.027680000000     0.798500000000     0.259950000000    -0.550154   
O112     O      0.028830000000     0.709280000000     0.249060000000    -0.552901   
O113     O      0.299040000000     0.978730000000     0.248090000000    -0.546446   
O114     O      0.209740000000     0.976560000000     0.259240000000    -0.547952   
O115     O      0.248510000000     0.978290000000     0.208980000000    -0.545945   
O116     O      0.260080000000     0.976730000000     0.298110000000    -0.551567   
O117     O      0.250940000000     0.528760000000     0.299310000000    -0.55703    
O118     O      0.255670000000     0.530660000000     0.209500000000    -0.553267   
O119     O      0.208460000000     0.528910000000     0.251840000000    -0.556106   
O120     O      0.298010000000     0.530800000000     0.257020000000    -0.560085   
O121     O      0.275520000000     0.007510000000     0.050210000000    -0.557194   
O122     O      0.280110000000     0.499100000000     0.460730000000    -0.552307   
O123     O      0.278360000000     0.548010000000     0.002210000000    -0.5577     
O124     O      0.277450000000     0.958650000000     0.510110000000    -0.553082   
O125     O      0.225240000000     0.958710000000     0.001840000000    -0.551909   
O126     O      0.225490000000     0.548720000000     0.502230000000    -0.552851   
O127     O      0.227610000000     0.004640000000     0.457800000000    -0.556796   
O128     O      0.222930000000     0.502910000000     0.047460000000    -0.557094   
O129     O      0.497830000000     0.730340000000     0.051340000000    -0.559628   
O130     O      0.006800000000     0.726340000000     0.461980000000    -0.55471    
O131     O      0.047140000000     0.728830000000     0.011300000000    -0.552919   
O132     O      0.457520000000     0.727950000000     0.503430000000    -0.555274   
O133     O      0.457120000000     0.780880000000     0.002690000000    -0.557888   
O134     O      0.046850000000     0.781190000000     0.504060000000    -0.556798   
O135     O      0.502050000000     0.778950000000     0.459240000000    -0.559559   
O136     O      0.001840000000     0.783040000000     0.049100000000    -0.559685   
O137     O      0.254370000000     0.707160000000     0.027960000000    -0.55567    
O138     O      0.253980000000     0.796980000000     0.032280000000    -0.550102   
O139     O      0.208590000000     0.751260000000     0.032330000000    -0.551218   
O140     O      0.298380000000     0.751670000000     0.028130000000    -0.555625   
O141     O      0.295740000000     0.755780000000     0.475430000000    -0.556751   
O142     O      0.205970000000     0.755320000000     0.479600000000    -0.561488   
O143     O      0.249910000000     0.799610000000     0.479580000000    -0.561813   
O144     O      0.250320000000     0.709860000000     0.475200000000    -0.554281   
O145     O      0.503200000000     0.958170000000     0.728630000000    -0.550012   
O146     O      0.005080000000     0.547940000000     0.727580000000    -0.556601   
O147     O      0.049140000000     0.003060000000     0.728740000000    -0.554278   
O148     O      0.459220000000     0.502930000000     0.727550000000    -0.554959   
O149     O      0.458720000000     0.004890000000     0.780450000000    -0.557266   
O150     O      0.048450000000     0.502410000000     0.781650000000    -0.55472    
O151     O      0.503760000000     0.548600000000     0.780480000000    -0.555051   
O152     O      0.003330000000     0.958670000000     0.781550000000    -0.54857    
O153     O      0.476910000000     0.708130000000     0.758950000000    -0.554896   
O154     O      0.475260000000     0.797790000000     0.753060000000    -0.558438   
O155     O      0.474770000000     0.750230000000     0.711290000000    -0.55741    
O156     O      0.477300000000     0.755840000000     0.800870000000    -0.555191   
O157     O      0.029590000000     0.748400000000     0.799300000000    -0.546677   
O158     O      0.026790000000     0.759390000000     0.709870000000    -0.54764    
O159     O      0.027680000000     0.798500000000     0.759950000000    -0.550137   
O160     O      0.028830000000     0.709280000000     0.749070000000    -0.552939   
O161     O      0.299040000000     0.978730000000     0.748090000000    -0.546436   
O162     O      0.209740000000     0.976560000000     0.759240000000    -0.547964   
O163     O      0.248510000000     0.978290000000     0.708980000000    -0.545937   
O164     O      0.260080000000     0.976730000000     0.798110000000    -0.55156    
O165     O      0.250940000000     0.528760000000     0.799310000000    -0.556933   
O166     O      0.255670000000     0.530660000000     0.709500000000    -0.553267   
O167     O      0.208460000000     0.528910000000     0.751850000000    -0.556112   
O168     O      0.298010000000     0.530800000000     0.757020000000    -0.560077   
O169     O      0.275520000000     0.007510000000     0.550210000000    -0.558646   
O170     O      0.280110000000     0.499100000000     0.960730000000    -0.545768   
O171     O      0.278360000000     0.548010000000     0.502210000000    -0.557246   
O172     O      0.277450000000     0.958650000000     0.010110000000    -0.553377   
O173     O      0.225240000000     0.958710000000     0.501840000000    -0.550511   
O174     O      0.225490000000     0.548720000000     0.002230000000    -0.55422    
O175     O      0.227610000000     0.004640000000     0.957800000000    -0.550431   
O176     O      0.222930000000     0.502910000000     0.547460000000    -0.558435   
O177     O      0.497830000000     0.730340000000     0.551340000000    -0.56111    
O178     O      0.006800000000     0.726340000000     0.961980000000    -0.548288   
O179     O      0.047140000000     0.728830000000     0.511300000000    -0.552586   
O180     O      0.457520000000     0.727950000000     0.003430000000    -0.555772   
O181     O      0.457120000000     0.780880000000     0.502690000000    -0.556577   
O182     O      0.046850000000     0.781190000000     0.004060000000    -0.558289   
O183     O      0.502050000000     0.778950000000     0.959240000000    -0.553182   
O184     O      0.001840000000     0.783040000000     0.549100000000    -0.560933   
O185     O      0.254370000000     0.707160000000     0.527960000000    -0.560145   
O186     O      0.253980000000     0.796980000000     0.532290000000    -0.552596   
O187     O      0.208590000000     0.751260000000     0.532330000000    -0.553909   
O188     O      0.298380000000     0.751670000000     0.528130000000    -0.560075   
O189     O      0.295740000000     0.755780000000     0.975430000000    -0.548251   
O190     O      0.205970000000     0.755320000000     0.979600000000    -0.554751   
O191     O      0.249910000000     0.799610000000     0.979580000000    -0.555286   
O192     O      0.250320000000     0.709860000000     0.975200000000    -0.54555    
O193     O      0.003200000000     0.458180000000     0.228630000000    -0.558476   
O194     O      0.505080000000     0.047940000000     0.227580000000    -0.554883   
O195     O      0.549140000000     0.503060000000     0.228740000000    -0.555518   
O196     O      0.959220000000     0.002930000000     0.227550000000    -0.549787   
O197     O      0.958710000000     0.504890000000     0.280450000000    -0.550228   
O198     O      0.548450000000     0.002410000000     0.281640000000    -0.558016   
O199     O      0.003760000000     0.048600000000     0.280480000000    -0.555165   
O200     O      0.503330000000     0.458670000000     0.281550000000    -0.555168   
O201     O      0.976910000000     0.208130000000     0.258950000000    -0.548095   
O202     O      0.975260000000     0.297790000000     0.253060000000    -0.55142    
O203     O      0.974770000000     0.250230000000     0.211290000000    -0.549015   
O204     O      0.977300000000     0.255840000000     0.300870000000    -0.548174   
O205     O      0.529590000000     0.248400000000     0.299300000000    -0.549592   
O206     O      0.526790000000     0.259390000000     0.209870000000    -0.551856   
O207     O      0.527680000000     0.298500000000     0.259950000000    -0.552936   
O208     O      0.528830000000     0.209270000000     0.249060000000    -0.555909   
O209     O      0.799040000000     0.478730000000     0.248090000000    -0.553485   
O210     O      0.709740000000     0.476560000000     0.259240000000    -0.554873   
O211     O      0.748510000000     0.478290000000     0.208980000000    -0.55299    
O212     O      0.760080000000     0.476730000000     0.298110000000    -0.558407   
O213     O      0.750940000000     0.028760000000     0.299310000000    -0.554209   
O214     O      0.755670000000     0.030660000000     0.209500000000    -0.550259   
O215     O      0.708460000000     0.028900000000     0.251840000000    -0.553455   
O216     O      0.798010000000     0.030800000000     0.257020000000    -0.557017   
O217     O      0.775520000000     0.507510000000     0.050210000000    -0.558381   
O218     O      0.780110000000     0.999100000000     0.460730000000    -0.537732   
O219     O      0.778350000000     0.048010000000     0.002210000000    -0.555413   
O220     O      0.777450000000     0.458650000000     0.510110000000    -0.560485   
O221     O      0.725240000000     0.458710000000     0.001840000000    -0.558392   
O222     O      0.725490000000     0.048720000000     0.502230000000    -0.551453   
O223     O      0.727610000000     0.504640000000     0.457800000000    -0.558657   
O224     O      0.722930000000     0.002910000000     0.047460000000    -0.558542   
O225     O      0.997830000000     0.230340000000     0.051340000000    -0.554152   
O226     O      0.506800000000     0.226340000000     0.461980000000    -0.555873   
O227     O      0.547140000000     0.228830000000     0.011300000000    -0.554883   
O228     O      0.957520000000     0.227950000000     0.503430000000    -0.548224   
O229     O      0.957120000000     0.280880000000     0.002690000000    -0.5519     
O230     O      0.546850000000     0.281190000000     0.504060000000    -0.558009   
O231     O      0.002050000000     0.278950000000     0.459240000000    -0.561172   
O232     O      0.501840000000     0.283040000000     0.049100000000    -0.552933   
O233     O      0.754370000000     0.207160000000     0.027960000000    -0.55566    
O234     O      0.753980000000     0.296980000000     0.032280000000    -0.55013    
O235     O      0.708590000000     0.251260000000     0.032330000000    -0.551196   
O236     O      0.798380000000     0.251660000000     0.028130000000    -0.555613   
O237     O      0.795740000000     0.255780000000     0.475430000000    -0.556863   
O238     O      0.705970000000     0.255320000000     0.479600000000    -0.561318   
O239     O      0.749910000000     0.299610000000     0.479580000000    -0.561834   
O240     O      0.750320000000     0.209860000000     0.475200000000    -0.554257   
O241     O      0.003200000000     0.458180000000     0.728630000000    -0.558339   
O242     O      0.505080000000     0.047940000000     0.727580000000    -0.554766   
O243     O      0.549140000000     0.503060000000     0.728740000000    -0.555307   
O244     O      0.959220000000     0.002930000000     0.727550000000    -0.54967    
O245     O      0.958710000000     0.504890000000     0.780450000000    -0.550037   
O246     O      0.548450000000     0.002410000000     0.781650000000    -0.557615   
O247     O      0.003760000000     0.048600000000     0.780480000000    -0.554953   
O248     O      0.503330000000     0.458670000000     0.781550000000    -0.554966   
O249     O      0.976910000000     0.208130000000     0.758950000000    -0.548074   
O250     O      0.975260000000     0.297790000000     0.753060000000    -0.551414   
O251     O      0.974770000000     0.250230000000     0.711290000000    -0.549028   
O252     O      0.977300000000     0.255840000000     0.800870000000    -0.548095   
O253     O      0.529590000000     0.248400000000     0.799300000000    -0.549524   
O254     O      0.526790000000     0.259390000000     0.709870000000    -0.551856   
O255     O      0.527680000000     0.298500000000     0.759950000000    -0.552913   
O256     O      0.528830000000     0.209270000000     0.749070000000    -0.555941   
O257     O      0.799040000000     0.478730000000     0.748090000000    -0.553466   
O258     O      0.709740000000     0.476560000000     0.759240000000    -0.554875   
O259     O      0.748510000000     0.478290000000     0.708980000000    -0.552978   
O260     O      0.760080000000     0.476730000000     0.798110000000    -0.558385   
O261     O      0.750940000000     0.028760000000     0.799310000000    -0.554116   
O262     O      0.755670000000     0.030660000000     0.709500000000    -0.550261   
O263     O      0.708460000000     0.028900000000     0.751850000000    -0.553464   
O264     O      0.798010000000     0.030800000000     0.757020000000    -0.557012   
O265     O      0.775520000000     0.507510000000     0.550210000000    -0.559841   
O266     O      0.780110000000     0.999100000000     0.960730000000    -0.531292   
O267     O      0.778350000000     0.048010000000     0.502210000000    -0.554953   
O268     O      0.777450000000     0.458650000000     0.010110000000    -0.560765   
O269     O      0.725240000000     0.458710000000     0.501840000000    -0.557004   
O270     O      0.725490000000     0.048720000000     0.002230000000    -0.552823   
O271     O      0.727610000000     0.504640000000     0.957800000000    -0.552283   
O272     O      0.722930000000     0.002910000000     0.547460000000    -0.559878   
O273     O      0.997830000000     0.230340000000     0.551340000000    -0.555633   
O274     O      0.506800000000     0.226340000000     0.961980000000    -0.549442   
O275     O      0.547140000000     0.228830000000     0.511300000000    -0.554553   
O276     O      0.957520000000     0.227950000000     0.003430000000    -0.548724   
O277     O      0.957120000000     0.280880000000     0.502690000000    -0.550589   
O278     O      0.546850000000     0.281190000000     0.004060000000    -0.559499   
O279     O      0.002050000000     0.278950000000     0.959240000000    -0.554779   
O280     O      0.501840000000     0.283040000000     0.549100000000    -0.554185   
O281     O      0.754370000000     0.207160000000     0.527960000000    -0.560129   
O282     O      0.753980000000     0.296980000000     0.532290000000    -0.552623   
O283     O      0.708590000000     0.251260000000     0.532330000000    -0.553886   
O284     O      0.798380000000     0.251660000000     0.528130000000    -0.560056   
O285     O      0.795740000000     0.255780000000     0.975430000000    -0.548378   
O286     O      0.705970000000     0.255320000000     0.979600000000    -0.554582   
O287     O      0.749910000000     0.299610000000     0.979580000000    -0.555307   
O288     O      0.750320000000     0.209860000000     0.975200000000    -0.54554    
O289     O      0.003200000000     0.958170000000     0.228630000000    -0.55153    
O290     O      0.505080000000     0.547940000000     0.227580000000    -0.556371   
O291     O      0.549140000000     0.003060000000     0.228740000000    -0.555874   
O292     O      0.959220000000     0.502930000000     0.227550000000    -0.548446   
O293     O      0.958710000000     0.004890000000     0.280450000000    -0.550655   
O294     O      0.548450000000     0.502410000000     0.281640000000    -0.556579   
O295     O      0.003760000000     0.548600000000     0.280480000000    -0.556574   
O296     O      0.503330000000     0.958670000000     0.281550000000    -0.548418   
O297     O      0.976910000000     0.708130000000     0.258950000000    -0.547877   
O298     O      0.975260000000     0.797790000000     0.253060000000    -0.551552   
O299     O      0.974770000000     0.750230000000     0.211290000000    -0.548991   
O300     O      0.977300000000     0.755840000000     0.300870000000    -0.548155   
O301     O      0.529590000000     0.748400000000     0.299300000000    -0.549594   
O302     O      0.526790000000     0.759390000000     0.209870000000    -0.551857   
O303     O      0.527680000000     0.798500000000     0.259950000000    -0.552927   
O304     O      0.528830000000     0.709280000000     0.249060000000    -0.555997   
O305     O      0.799040000000     0.978730000000     0.248090000000    -0.54639    
O306     O      0.709740000000     0.976560000000     0.259240000000    -0.54795    
O307     O      0.748510000000     0.978290000000     0.208980000000    -0.545921   
O308     O      0.760080000000     0.976730000000     0.298110000000    -0.551573   
O309     O      0.750940000000     0.528760000000     0.299310000000    -0.557008   
O310     O      0.755670000000     0.530660000000     0.209500000000    -0.55322    
O311     O      0.708460000000     0.528910000000     0.251840000000    -0.556086   
O312     O      0.798010000000     0.530800000000     0.257020000000    -0.560029   
O313     O      0.775520000000     0.007510000000     0.050210000000    -0.557092   
O314     O      0.780110000000     0.499100000000     0.460730000000    -0.552152   
O315     O      0.778350000000     0.548010000000     0.002210000000    -0.557759   
O316     O      0.777450000000     0.958650000000     0.510110000000    -0.553005   
O317     O      0.725240000000     0.958710000000     0.001840000000    -0.551841   
O318     O      0.725490000000     0.548720000000     0.502230000000    -0.552834   
O319     O      0.727610000000     0.004640000000     0.457800000000    -0.556724   
O320     O      0.722930000000     0.502910000000     0.047460000000    -0.557023   
O321     O      0.997830000000     0.730340000000     0.051340000000    -0.554094   
O322     O      0.506800000000     0.726340000000     0.461980000000    -0.555787   
O323     O      0.547140000000     0.728830000000     0.011300000000    -0.554796   
O324     O      0.957520000000     0.727950000000     0.503430000000    -0.548142   
O325     O      0.957120000000     0.780880000000     0.002690000000    -0.55177    
O326     O      0.546850000000     0.781190000000     0.504060000000    -0.557868   
O327     O      0.002050000000     0.778950000000     0.459240000000    -0.561037   
O328     O      0.501840000000     0.783040000000     0.049100000000    -0.552761   
O329     O      0.754370000000     0.707160000000     0.027960000000    -0.555665   
O330     O      0.753980000000     0.796980000000     0.032280000000    -0.550074   
O331     O      0.708590000000     0.751260000000     0.032330000000    -0.551165   
O332     O      0.798380000000     0.751670000000     0.028130000000    -0.555617   
O333     O      0.795740000000     0.755780000000     0.475430000000    -0.556859   
O334     O      0.705970000000     0.755320000000     0.479600000000    -0.561308   
O335     O      0.749910000000     0.799610000000     0.479580000000    -0.561793   
O336     O      0.750320000000     0.709860000000     0.475200000000    -0.554229   
O337     O      0.003200000000     0.958170000000     0.728630000000    -0.5514     
O338     O      0.505080000000     0.547940000000     0.727580000000    -0.556252   
O339     O      0.549140000000     0.003060000000     0.728740000000    -0.555663   
O340     O      0.959220000000     0.502930000000     0.727550000000    -0.548328   
O341     O      0.958710000000     0.004890000000     0.780450000000    -0.550465   
O342     O      0.548450000000     0.502410000000     0.781650000000    -0.556179   
O343     O      0.003760000000     0.548600000000     0.780480000000    -0.556359   
O344     O      0.503330000000     0.958670000000     0.781550000000    -0.548229   
O345     O      0.976910000000     0.708130000000     0.758950000000    -0.547856   
O346     O      0.975260000000     0.797790000000     0.753060000000    -0.551545   
O347     O      0.974770000000     0.750230000000     0.711290000000    -0.549005   
O348     O      0.977300000000     0.755840000000     0.800870000000    -0.548076   
O349     O      0.529590000000     0.748400000000     0.799300000000    -0.549527   
O350     O      0.526790000000     0.759390000000     0.709870000000    -0.551858   
O351     O      0.527680000000     0.798500000000     0.759950000000    -0.552904   
O352     O      0.528830000000     0.709280000000     0.749070000000    -0.556029   
O353     O      0.799040000000     0.978730000000     0.748090000000    -0.546381   
O354     O      0.709740000000     0.976560000000     0.759240000000    -0.547962   
O355     O      0.748510000000     0.978290000000     0.708980000000    -0.545913   
O356     O      0.760080000000     0.976730000000     0.798110000000    -0.551566   
O357     O      0.750940000000     0.528760000000     0.799310000000    -0.556911   
O358     O      0.755670000000     0.530660000000     0.709500000000    -0.55322    
O359     O      0.708460000000     0.528910000000     0.751850000000    -0.556092   
O360     O      0.798010000000     0.530800000000     0.757020000000    -0.560021   
O361     O      0.775520000000     0.007510000000     0.550210000000    -0.558541   
O362     O      0.780110000000     0.499100000000     0.960730000000    -0.545631   
O363     O      0.778350000000     0.548010000000     0.502210000000    -0.557305   
O364     O      0.777450000000     0.958650000000     0.010110000000    -0.5533     
O365     O      0.725240000000     0.958710000000     0.501840000000    -0.550445   
O366     O      0.725490000000     0.548720000000     0.002230000000    -0.554201   
O367     O      0.727610000000     0.004640000000     0.957800000000    -0.55037    
O368     O      0.722930000000     0.502910000000     0.547460000000    -0.558361   
O369     O      0.997830000000     0.730340000000     0.551340000000    -0.555573   
O370     O      0.506800000000     0.726340000000     0.961980000000    -0.549363   
O371     O      0.547140000000     0.728830000000     0.511300000000    -0.554466   
O372     O      0.957520000000     0.727950000000     0.003430000000    -0.548643   
O373     O      0.957120000000     0.780880000000     0.502690000000    -0.550461   
O374     O      0.546850000000     0.781190000000     0.004060000000    -0.559357   
O375     O      0.002050000000     0.778950000000     0.959240000000    -0.554656   
O376     O      0.501840000000     0.783040000000     0.549100000000    -0.554012   
O377     O      0.754370000000     0.707160000000     0.527960000000    -0.560131   
O378     O      0.753980000000     0.796980000000     0.532290000000    -0.552562   
O379     O      0.708590000000     0.751260000000     0.532330000000    -0.553852   
O380     O      0.798380000000     0.751670000000     0.528130000000    -0.560055   
O381     O      0.795740000000     0.755780000000     0.975430000000    -0.548385   
O382     O      0.705970000000     0.755320000000     0.979600000000    -0.554582   
O383     O      0.749910000000     0.799610000000     0.979580000000    -0.55528    
O384     O      0.750320000000     0.709860000000     0.975200000000    -0.545518   
V1       V      0.004210000000     0.503010000000     0.226020000000     1.38479    
V2       V      0.003550000000     0.003670000000     0.283140000000     1.37581    
V3       V      0.473790000000     0.252940000000     0.256150000000     1.39174    
V4       V      0.030520000000     0.253910000000     0.254510000000     1.36477    
V5       V      0.254410000000     0.475300000000     0.253510000000     1.3779     
V6       V      0.253220000000     0.032050000000     0.254440000000     1.37996    
V7       V      0.280020000000     0.003300000000     0.005790000000     1.36498    
V8       V      0.223140000000     0.003730000000     0.502320000000     1.37953    
V9       V      0.002360000000     0.226210000000     0.007000000000     1.35846    
V10      V      0.001980000000     0.283160000000     0.503830000000     1.38951    
V11      V      0.253790000000     0.251740000000     0.032300000000     1.37809    
V12      V      0.250510000000     0.255070000000     0.475330000000     1.38984    
V13      V      0.004210000000     0.503010000000     0.726020000000     1.38464    
V14      V      0.003550000000     0.003670000000     0.783130000000     1.37626    
V15      V      0.473790000000     0.252940000000     0.756150000000     1.39178    
V16      V      0.030520000000     0.253910000000     0.754510000000     1.36486    
V17      V      0.254410000000     0.475300000000     0.753510000000     1.37786    
V18      V      0.253220000000     0.032050000000     0.754440000000     1.38008    
V19      V      0.280020000000     0.003300000000     0.505790000000     1.37314    
V20      V      0.223140000000     0.003730000000     0.002320000000     1.37056    
V21      V      0.002360000000     0.226210000000     0.507000000000     1.36681    
V22      V      0.001980000000     0.283160000000     0.003830000000     1.38051    
V23      V      0.253790000000     0.251740000000     0.532300000000     1.38961    
V24      V      0.250510000000     0.255070000000     0.975330000000     1.39415    
V25      V      0.004210000000     0.003010000000     0.226020000000     1.37531    
V26      V      0.003550000000     0.503670000000     0.283140000000     1.38487    
V27      V      0.473790000000     0.752950000000     0.256150000000     1.39167    
V28      V      0.030520000000     0.753910000000     0.254510000000     1.36513    
V29      V      0.254410000000     0.975300000000     0.253510000000     1.38341    
V30      V      0.253220000000     0.532050000000     0.254440000000     1.39145    
V31      V      0.280020000000     0.503300000000     0.005790000000     1.38415    
V32      V      0.223140000000     0.503730000000     0.502320000000     1.3879     
V33      V      0.002360000000     0.726210000000     0.007000000000     1.35862    
V34      V      0.001980000000     0.783160000000     0.503830000000     1.39008    
V35      V      0.253790000000     0.751740000000     0.032300000000     1.37811    
V36      V      0.250510000000     0.755070000000     0.475330000000     1.38984    
V37      V      0.004210000000     0.003010000000     0.726020000000     1.37516    
V38      V      0.003550000000     0.503670000000     0.783130000000     1.3853     
V39      V      0.473790000000     0.752950000000     0.756150000000     1.39171    
V40      V      0.030520000000     0.753910000000     0.754510000000     1.36523    
V41      V      0.254410000000     0.975300000000     0.753510000000     1.38337    
V42      V      0.253220000000     0.532050000000     0.754440000000     1.39155    
V43      V      0.280020000000     0.503300000000     0.505790000000     1.3924     
V44      V      0.223140000000     0.503730000000     0.002320000000     1.37889    
V45      V      0.002360000000     0.726210000000     0.507000000000     1.36697    
V46      V      0.001980000000     0.783160000000     0.003830000000     1.3811     
V47      V      0.253790000000     0.751740000000     0.532300000000     1.38961    
V48      V      0.250510000000     0.755070000000     0.975330000000     1.39414    
V49      V      0.504210000000     0.503010000000     0.226020000000     1.39362    
V50      V      0.503550000000     0.003670000000     0.283140000000     1.38504    
V51      V      0.973790000000     0.252940000000     0.256150000000     1.3968     
V52      V      0.530520000000     0.253910000000     0.254510000000     1.37637    
V53      V      0.754410000000     0.475300000000     0.253510000000     1.37792    
V54      V      0.753220000000     0.032050000000     0.254440000000     1.38001    
V55      V      0.780020000000     0.003300000000     0.005790000000     1.36565    
V56      V      0.723140000000     0.003730000000     0.502320000000     1.3797     
V57      V      0.502360000000     0.226210000000     0.007000000000     1.37566    
V58      V      0.501980000000     0.283160000000     0.503830000000     1.39607    
V59      V      0.753790000000     0.251740000000     0.032300000000     1.37812    
V60      V      0.750520000000     0.255070000000     0.475330000000     1.38981    
V61      V      0.504210000000     0.503010000000     0.726020000000     1.39346    
V62      V      0.503550000000     0.003670000000     0.783130000000     1.38547    
V63      V      0.973790000000     0.252940000000     0.756150000000     1.39683    
V64      V      0.530520000000     0.253910000000     0.754510000000     1.37644    
V65      V      0.754410000000     0.475300000000     0.753510000000     1.37789    
V66      V      0.753220000000     0.032050000000     0.754440000000     1.38012    
V67      V      0.780020000000     0.003300000000     0.505790000000     1.37379    
V68      V      0.723140000000     0.003730000000     0.002320000000     1.37074    
V69      V      0.502360000000     0.226210000000     0.507000000000     1.38403    
V70      V      0.501980000000     0.283160000000     0.003830000000     1.38704    
V71      V      0.753790000000     0.251740000000     0.532300000000     1.38962    
V72      V      0.750520000000     0.255070000000     0.975330000000     1.39411    
V73      V      0.504210000000     0.003010000000     0.226020000000     1.38411    
V74      V      0.503550000000     0.503670000000     0.283140000000     1.39412    
V75      V      0.973790000000     0.752950000000     0.256150000000     1.39672    
V76      V      0.530520000000     0.753910000000     0.254510000000     1.37672    
V77      V      0.754410000000     0.975300000000     0.253510000000     1.38342    
V78      V      0.753220000000     0.532050000000     0.254440000000     1.39148    
V79      V      0.780020000000     0.503300000000     0.005790000000     1.38478    
V80      V      0.723140000000     0.503730000000     0.502320000000     1.38806    
V81      V      0.502360000000     0.726210000000     0.007000000000     1.3758     
V82      V      0.501980000000     0.783160000000     0.503830000000     1.39662    
V83      V      0.753790000000     0.751740000000     0.032300000000     1.37814    
V84      V      0.750520000000     0.755070000000     0.475330000000     1.38981    
V85      V      0.504210000000     0.003010000000     0.726020000000     1.38396    
V86      V      0.503550000000     0.503670000000     0.783130000000     1.39453    
V87      V      0.973790000000     0.752950000000     0.756150000000     1.39675    
V88      V      0.530520000000     0.753910000000     0.754510000000     1.37679    
V89      V      0.754410000000     0.975300000000     0.753510000000     1.38337    
V90      V      0.753220000000     0.532050000000     0.754440000000     1.39158    
V91      V      0.780020000000     0.503300000000     0.505790000000     1.39301    
V92      V      0.723140000000     0.503730000000     0.002320000000     1.37906    
V93      V      0.502360000000     0.726210000000     0.507000000000     1.38417    
V94      V      0.501980000000     0.783160000000     0.003830000000     1.38762    
V95      V      0.753790000000     0.751740000000     0.532300000000     1.38962    
V96      V      0.750520000000     0.755070000000     0.975330000000     1.3941     


