data_structure

_audit_creation_method RASPA-1.0
_audit_creation_date 2023-5-23
_audit_author_name 'Poobodin Mano'

_cell_length_a    31.7179
_cell_length_b    31.7167
_cell_length_c    42.4422
_cell_angle_alpha 90
_cell_angle_beta  90
_cell_angle_gamma 90
_cell_volume      42696.3

_symmetry_cell_setting          triclinic
_symmetry_space_group_name_Hall 'P 1'
_symmetry_space_group_name_H-M  'P 1'
_symmetry_Int_Tables_number     1

_symmetry_equiv_pos_as_xyz 'x,y,z'

loop_
_atom_site_label
_atom_site_type_symbol
_atom_site_fract_x
_atom_site_fract_y
_atom_site_fract_z
_atom_site_charge
C1       C      0.513880000000     0.845880000000     0.074610000000     0.474551   
C2       C      0.514970000000     0.848480000000     0.455090000000     0.475846   
C3       C      0.434630000000     0.847190000000     0.513970000000     0.477459   
C4       C      0.594130000000     0.847260000000     0.515200000000     0.477632   
C5       C      0.514470000000     0.848620000000     0.324690000000     0.47669    
C6       C      0.514940000000     0.845530000000     0.205090000000     0.475857   
C7       C      0.434890000000     0.846980000000     0.264620000000     0.479057   
C8       C      0.594520000000     0.847220000000     0.265360000000     0.478645   
C9       C      0.845950000000     0.513610000000     0.449940000000     0.475491   
C10      C      0.848560000000     0.513990000000     0.069470000000     0.475105   
C11      C      0.847240000000     0.434000000000     0.010160000000     0.476435   
C12      C      0.847310000000     0.593480000000     0.009480000000     0.476551   
C13      C      0.848780000000     0.513610000000     0.199890000000     0.476643   
C14      C      0.845680000000     0.514850000000     0.319480000000     0.476239   
C15      C      0.847030000000     0.434420000000     0.260410000000     0.47884    
C16      C      0.847520000000     0.594060000000     0.259040000000     0.478468   
C17      C      0.513230000000     0.179270000000     0.453380000000     0.476313   
C18      C      0.516540000000     0.182410000000     0.072960000000     0.475234   
C19      C      0.435160000000     0.181410000000     0.014410000000     0.477616   
C20      C      0.594720000000     0.180320000000     0.011770000000     0.47755    
C21      C      0.512970000000     0.179400000000     0.322940000000     0.475305   
C22      C      0.516420000000     0.182060000000     0.203430000000     0.475282   
C23      C      0.594430000000     0.180620000000     0.264680000000     0.477751   
C24      C      0.434970000000     0.180720000000     0.261850000000     0.477833   
C25      C      0.182210000000     0.514620000000     0.075100000000     0.475062   
C26      C      0.182180000000     0.514180000000     0.455560000000     0.474735   
C27      C      0.182770000000     0.434670000000     0.515820000000     0.477515   
C28      C      0.181760000000     0.594140000000     0.514970000000     0.477579   
C29      C      0.181950000000     0.513550000000     0.205520000000     0.475402   
C30      C      0.181920000000     0.515270000000     0.325070000000     0.474935   
C31      C      0.181880000000     0.594150000000     0.264150000000     0.477565   
C32      C      0.181820000000     0.434670000000     0.266030000000     0.477719   
C33      C      0.927070000000     0.846360000000     0.010370000000     0.467065   
C34      C      0.767370000000     0.846650000000     0.012810000000     0.46817    
C35      C      0.847230000000     0.926450000000     0.511880000000     0.476393   
C36      C      0.847070000000     0.766740000000     0.510570000000     0.477498   
C37      C      0.927420000000     0.847040000000     0.261160000000     0.475669   
C38      C      0.767780000000     0.847210000000     0.264730000000     0.477048   
C39      C      0.847670000000     0.926940000000     0.265270000000     0.475188   
C40      C      0.847530000000     0.767320000000     0.260760000000     0.477108   
C41      C      0.847850000000     0.100980000000     0.011480000000     0.467029   
C42      C      0.847490000000     0.260710000000     0.011520000000     0.468286   
C43      C      0.927650000000     0.181330000000     0.511840000000     0.475795   
C44      C      0.767930000000     0.180480000000     0.510790000000     0.477763   
C45      C      0.848060000000     0.101530000000     0.266890000000     0.475624   
C46      C      0.846860000000     0.261230000000     0.264120000000     0.477368   
C47      C      0.927450000000     0.182100000000     0.265200000000     0.476026   
C48      C      0.767720000000     0.180780000000     0.266250000000     0.477437   
C49      C      0.181910000000     0.101710000000     0.510920000000     0.476569   
C50      C      0.182750000000     0.261480000000     0.514950000000     0.478544   
C51      C      0.102210000000     0.182070000000     0.012290000000     0.467746   
C52      C      0.262020000000     0.181530000000     0.013950000000     0.469415   
C53      C      0.181890000000     0.101680000000     0.262150000000     0.476237   
C54      C      0.182040000000     0.261390000000     0.264670000000     0.477508   
C55      C      0.101990000000     0.181870000000     0.264240000000     0.475931   
C56      C      0.261710000000     0.181360000000     0.262170000000     0.477453   
C57      C      0.101610000000     0.846680000000     0.510270000000     0.475977   
C58      C      0.261350000000     0.847630000000     0.510770000000     0.477351   
C59      C      0.181240000000     0.927120000000     0.009410000000     0.466739   
C60      C      0.181870000000     0.767400000000     0.012000000000     0.468237   
C61      C      0.101990000000     0.847470000000     0.260020000000     0.475743   
C62      C      0.261680000000     0.846860000000     0.262480000000     0.477594   
C63      C      0.182290000000     0.927130000000     0.261270000000     0.475941   
C64      C      0.181470000000     0.767400000000     0.261040000000     0.477656   
C65      C      0.182170000000     0.992630000000     0.233700000000     0.0304851  
C66      C      0.182470000000     0.992160000000     0.289260000000     0.0306195  
C67      C      0.182130000000     0.036140000000     0.289430000000     0.0307342  
C68      C      0.182240000000     0.036700000000     0.233870000000     0.0304587  
C69      C      0.183540000000     0.036930000000     0.482110000000     0.0305346  
C70      C      0.179550000000     0.035950000000     0.037590000000     0.029277   
C71      C      0.179270000000     0.992070000000     0.037180000000     0.0294849  
C72      C      0.183450000000     0.992750000000     0.481710000000     0.030403   
C73      C      0.992980000000     0.182140000000     0.292660000000     0.0306294  
C74      C      0.992430000000     0.182490000000     0.237100000000     0.0305262  
C75      C      0.036440000000     0.182200000000     0.236910000000     0.0306253  
C76      C      0.037030000000     0.182250000000     0.292470000000     0.030506   
C77      C      0.992770000000     0.182780000000     0.039770000000     0.0291459  
C78      C      0.993050000000     0.180950000000     0.484220000000     0.0306959  
C79      C      0.037080000000     0.181360000000     0.484270000000     0.030407   
C80      C      0.036790000000     0.182820000000     0.039820000000     0.029494   
C81      C      0.992300000000     0.844890000000     0.232540000000     0.0305358  
C82      C      0.993060000000     0.849600000000     0.287980000000     0.0305465  
C83      C      0.036950000000     0.849790000000     0.287680000000     0.0306055  
C84      C      0.036470000000     0.844990000000     0.232230000000     0.0303127  
C85      C      0.850380000000     0.992740000000     0.238700000000     0.0303847  
C86      C      0.845520000000     0.991670000000     0.294140000000     0.0304465  
C87      C      0.845640000000     0.035860000000     0.294570000000     0.0304139  
C88      C      0.850550000000     0.036600000000     0.239140000000     0.0306855  
C89      C      0.992400000000     0.846420000000     0.037900000000     0.0294825  
C90      C      0.992270000000     0.846020000000     0.482330000000     0.030415   
C91      C      0.036350000000     0.846330000000     0.482360000000     0.0305407  
C92      C      0.036370000000     0.846300000000     0.037930000000     0.0293737  
C93      C      0.847470000000     0.991800000000     0.039630000000     0.029122   
C94      C      0.847220000000     0.991610000000     0.484060000000     0.0306998  
C95      C      0.847210000000     0.035610000000     0.483900000000     0.0305792  
C96      C      0.847890000000     0.035850000000     0.039460000000     0.0294878  
C97      C      0.153920000000     0.659330000000     0.281300000000     0.0321604  
C98      C      0.208990000000     0.658240000000     0.243800000000     0.0321468  
C99      C      0.207150000000     0.702200000000     0.241630000000     0.0316824  
C100     C      0.155100000000     0.703300000000     0.281470000000     0.0323375  
C101     C      0.209060000000     0.369790000000     0.284780000000     0.0321904  
C102     C      0.154280000000     0.370230000000     0.247030000000     0.0321938  
C103     C      0.155810000000     0.326310000000     0.245560000000     0.0322537  
C104     C      0.207540000000     0.325760000000     0.285650000000     0.0316955  
C105     C      0.208680000000     0.659360000000     0.533180000000     0.0322369  
C106     C      0.154480000000     0.658220000000     0.994970000000     0.0384266  
C107     C      0.156130000000     0.702150000000     0.993010000000     0.037549   
C108     C      0.207210000000     0.703380000000     0.533540000000     0.0318902  
C109     C      0.156950000000     0.369870000000     0.035760000000     0.0312901  
C110     C      0.209680000000     0.370220000000     0.496400000000     0.0321267  
C111     C      0.208180000000     0.326280000000     0.495140000000     0.032686   
C112     C      0.158740000000     0.325840000000     0.036820000000     0.0311912  
C113     C      0.144980000000     0.511640000000     0.373890000000     0.0300872  
C114     C      0.219010000000     0.518480000000     0.373830000000     0.030031   
C115     C      0.219090000000     0.518090000000     0.406740000000     0.0299989  
C116     C      0.145060000000     0.511220000000     0.406800000000     0.0300326  
C117     C      0.219160000000     0.510940000000     0.123890000000     0.0300833  
C118     C      0.145080000000     0.517350000000     0.123840000000     0.0301805  
C119     C      0.145000000000     0.516960000000     0.156730000000     0.0302066  
C120     C      0.219080000000     0.510530000000     0.156790000000     0.0301762  
C121     C      0.370270000000     0.152950000000     0.280120000000     0.0322033  
C122     C      0.370370000000     0.208340000000     0.242870000000     0.0321751  
C123     C      0.326340000000     0.206910000000     0.241700000000     0.0317453  
C124     C      0.326340000000     0.154560000000     0.281330000000     0.0322388  
C125     C      0.658750000000     0.207770000000     0.284590000000     0.0322071  
C126     C      0.659430000000     0.152900000000     0.246920000000     0.0322046  
C127     C      0.703390000000     0.154300000000     0.246290000000     0.0322472  
C128     C      0.702750000000     0.206150000000     0.286280000000     0.0317559  
C129     C      0.370460000000     0.154380000000     0.033520000000     0.0317996  
C130     C      0.370680000000     0.209290000000     0.995860000000     0.0386936  
C131     C      0.326730000000     0.207740000000     0.994540000000     0.0380349  
C132     C      0.326450000000     0.156030000000     0.034650000000     0.0311287  
C133     C      0.659540000000     0.152010000000     0.529340000000     0.0325041  
C134     C      0.659130000000     0.207810000000     0.992420000000     0.03881    
C135     C      0.703120000000     0.206240000000     0.990880000000     0.0372161  
C136     C      0.703510000000     0.153520000000     0.530250000000     0.0322917  
C137     C      0.510750000000     0.215940000000     0.404590000000     0.030303   
C138     C      0.513930000000     0.141650000000     0.404630000000     0.0302404  
C139     C      0.514020000000     0.141750000000     0.371650000000     0.0304668  
C140     C      0.510540000000     0.216020000000     0.371760000000     0.0300962  
C141     C      0.515410000000     0.145490000000     0.154560000000     0.0300001  
C142     C      0.518800000000     0.219770000000     0.154750000000     0.0301333  
C143     C      0.518680000000     0.219920000000     0.121760000000     0.0299603  
C144     C      0.515550000000     0.145630000000     0.121740000000     0.0300804  
C145     C      0.818960000000     0.369130000000     0.243330000000     0.0324535  
C146     C      0.874830000000     0.370470000000     0.280170000000     0.0324361  
C147     C      0.873220000000     0.326570000000     0.282360000000     0.0322058  
C148     C      0.820420000000     0.325100000000     0.243080000000     0.0318554  
C149     C      0.876380000000     0.658400000000     0.277040000000     0.0325027  
C150     C      0.819420000000     0.659030000000     0.241140000000     0.0324271  
C151     C      0.821020000000     0.703080000000     0.240240000000     0.0317024  
C152     C      0.875010000000     0.702320000000     0.278610000000     0.0322483  
C153     C      0.874660000000     0.369110000000     0.991880000000     0.0386355  
C154     C      0.820260000000     0.369580000000     0.529930000000     0.03211    
C155     C      0.821980000000     0.325600000000     0.531540000000     0.0317734  
C156     C      0.873310000000     0.325130000000     0.991180000000     0.0375404  
C157     C      0.874990000000     0.657960000000     0.028360000000     0.0312449  
C158     C      0.819750000000     0.658300000000     0.490980000000     0.0321199  
C159     C      0.821230000000     0.702310000000     0.490060000000     0.031789   
C160     C      0.873430000000     0.701900000000     0.029800000000     0.0308187  
C161     C      0.808270000000     0.512430000000     0.401240000000     0.0302108  
C162     C      0.882540000000     0.515900000000     0.401100000000     0.0301052  
C163     C      0.882420000000     0.516210000000     0.368280000000     0.0302319  
C164     C      0.808140000000     0.513010000000     0.368260000000     0.0301012  
C165     C      0.812050000000     0.515370000000     0.151110000000     0.0302568  
C166     C      0.886330000000     0.512040000000     0.151130000000     0.0302196  
C167     C      0.886220000000     0.512060000000     0.118150000000     0.0303134  
C168     C      0.811950000000     0.515660000000     0.118300000000     0.0300048  
C169     C      0.326720000000     0.873340000000     0.243790000000     0.0321496  
C170     C      0.325860000000     0.820670000000     0.283190000000     0.0318822  
C171     C      0.369880000000     0.819130000000     0.282480000000     0.0324887  
C172     C      0.370650000000     0.874870000000     0.245520000000     0.032587   
C173     C      0.659060000000     0.876120000000     0.247780000000     0.0325877  
C174     C      0.659270000000     0.818990000000     0.283530000000     0.0324664  
C175     C      0.703300000000     0.820600000000     0.284750000000     0.0316381  
C176     C      0.703000000000     0.874790000000     0.246520000000     0.0321879  
C177     C      0.369420000000     0.874960000000     0.531320000000     0.0321136  
C178     C      0.370540000000     0.820200000000     0.993560000000     0.0384789  
C179     C      0.326590000000     0.822030000000     0.991400000000     0.0370518  
C180     C      0.325440000000     0.873760000000     0.531470000000     0.0322872  
C181     C      0.658400000000     0.874750000000     0.495830000000     0.0323211  
C182     C      0.659140000000     0.819720000000     0.033370000000     0.031152   
C183     C      0.703170000000     0.821090000000     0.033930000000     0.0302925  
C184     C      0.702320000000     0.873050000000     0.494010000000     0.0321642  
C185     C      0.516430000000     0.811920000000     0.373460000000     0.0303651  
C186     C      0.513090000000     0.886200000000     0.373430000000     0.0304323  
C187     C      0.513140000000     0.886110000000     0.406400000000     0.0304419  
C188     C      0.516760000000     0.811840000000     0.406280000000     0.0302271  
C189     C      0.515950000000     0.882440000000     0.123470000000     0.0299103  
C190     C      0.512510000000     0.808170000000     0.123310000000     0.0300694  
C191     C      0.513030000000     0.808020000000     0.156290000000     0.0299554  
C192     C      0.516210000000     0.882300000000     0.156300000000     0.0301472  
C193     C      0.513880000000     0.845880000000     0.574610000000     0.475169   
C194     C      0.514970000000     0.848480000000     0.955090000000     0.474775   
C195     C      0.434630000000     0.847190000000     0.013970000000     0.476173   
C196     C      0.594130000000     0.847260000000     0.015210000000     0.476394   
C197     C      0.514470000000     0.848620000000     0.824690000000     0.476757   
C198     C      0.514940000000     0.845530000000     0.705090000000     0.475844   
C199     C      0.434890000000     0.846980000000     0.764610000000     0.478858   
C200     C      0.594520000000     0.847220000000     0.765360000000     0.478616   
C201     C      0.845950000000     0.513610000000     0.949940000000     0.474413   
C202     C      0.848560000000     0.513990000000     0.569470000000     0.475755   
C203     C      0.847240000000     0.434000000000     0.510160000000     0.477708   
C204     C      0.847310000000     0.593480000000     0.509480000000     0.477804   
C205     C      0.848780000000     0.513610000000     0.699890000000     0.476635   
C206     C      0.845680000000     0.514850000000     0.819480000000     0.476308   
C207     C      0.847030000000     0.434420000000     0.760410000000     0.478871   
C208     C      0.847520000000     0.594060000000     0.759040000000     0.478475   
C209     C      0.513230000000     0.179270000000     0.953380000000     0.475196   
C210     C      0.516540000000     0.182410000000     0.572960000000     0.475886   
C211     C      0.435160000000     0.181410000000     0.514410000000     0.478886   
C212     C      0.594720000000     0.180320000000     0.511770000000     0.478837   
C213     C      0.512970000000     0.179400000000     0.822940000000     0.47537    
C214     C      0.516420000000     0.182060000000     0.703430000000     0.475275   
C215     C      0.594430000000     0.180620000000     0.764680000000     0.477761   
C216     C      0.434970000000     0.180720000000     0.761850000000     0.477838   
C217     C      0.182210000000     0.514620000000     0.575110000000     0.475623   
C218     C      0.182180000000     0.514180000000     0.955560000000     0.473652   
C219     C      0.182770000000     0.434670000000     0.015820000000     0.476238   
C220     C      0.181760000000     0.594140000000     0.014970000000     0.476304   
C221     C      0.181950000000     0.513550000000     0.705530000000     0.475485   
C222     C      0.181920000000     0.515270000000     0.825070000000     0.475026   
C223     C      0.181880000000     0.594150000000     0.764150000000     0.477572   
C224     C      0.181820000000     0.434670000000     0.766030000000     0.477723   
C225     C      0.927070000000     0.846360000000     0.510370000000     0.476116   
C226     C      0.767370000000     0.846650000000     0.512810000000     0.477373   
C227     C      0.847230000000     0.926450000000     0.011880000000     0.467254   
C228     C      0.847070000000     0.766740000000     0.010580000000     0.468365   
C229     C      0.927420000000     0.847040000000     0.761150000000     0.475668   
C230     C      0.767780000000     0.847210000000     0.764730000000     0.477072   
C231     C      0.847670000000     0.926940000000     0.765270000000     0.475203   
C232     C      0.847530000000     0.767320000000     0.760760000000     0.477183   
C233     C      0.847840000000     0.100980000000     0.511480000000     0.47606    
C234     C      0.847490000000     0.260710000000     0.511520000000     0.477501   
C235     C      0.927650000000     0.181330000000     0.011840000000     0.466659   
C236     C      0.767930000000     0.180480000000     0.010790000000     0.46865    
C237     C      0.848060000000     0.101530000000     0.766890000000     0.475636   
C238     C      0.846860000000     0.261230000000     0.764120000000     0.477324   
C239     C      0.927450000000     0.182100000000     0.765200000000     0.476005   
C240     C      0.767720000000     0.180780000000     0.766250000000     0.477424   
C241     C      0.181910000000     0.101710000000     0.010920000000     0.46752    
C242     C      0.182750000000     0.261480000000     0.014950000000     0.469025   
C243     C      0.102210000000     0.182070000000     0.512290000000     0.476789   
C244     C      0.262020000000     0.181530000000     0.513950000000     0.478623   
C245     C      0.181890000000     0.101680000000     0.762150000000     0.476215   
C246     C      0.182040000000     0.261390000000     0.764670000000     0.477504   
C247     C      0.101990000000     0.181870000000     0.764240000000     0.475912   
C248     C      0.261710000000     0.181360000000     0.762170000000     0.477439   
C249     C      0.101610000000     0.846680000000     0.010270000000     0.466853   
C250     C      0.261350000000     0.847640000000     0.010770000000     0.467914   
C251     C      0.181240000000     0.927120000000     0.509410000000     0.475787   
C252     C      0.181870000000     0.767400000000     0.512000000000     0.477125   
C253     C      0.101990000000     0.847470000000     0.760030000000     0.475763   
C254     C      0.261680000000     0.846860000000     0.762480000000     0.477588   
C255     C      0.182290000000     0.927130000000     0.761270000000     0.475925   
C256     C      0.181470000000     0.767400000000     0.761040000000     0.47764    
C257     C      0.182170000000     0.992630000000     0.733700000000     0.0304709  
C258     C      0.182470000000     0.992160000000     0.789260000000     0.0306363  
C259     C      0.182130000000     0.036140000000     0.789430000000     0.0307477  
C260     C      0.182240000000     0.036700000000     0.733870000000     0.0304436  
C261     C      0.183540000000     0.036930000000     0.982110000000     0.0360354  
C262     C      0.179550000000     0.035950000000     0.537590000000     0.0304333  
C263     C      0.179270000000     0.992070000000     0.537180000000     0.0306481  
C264     C      0.183450000000     0.992750000000     0.981710000000     0.0359104  
C265     C      0.992980000000     0.182140000000     0.792660000000     0.0306392  
C266     C      0.992430000000     0.182490000000     0.737100000000     0.0304997  
C267     C      0.036440000000     0.182200000000     0.736910000000     0.0306403  
C268     C      0.037030000000     0.182250000000     0.792470000000     0.0305191  
C269     C      0.992770000000     0.182780000000     0.539770000000     0.0303275  
C270     C      0.993050000000     0.180950000000     0.984220000000     0.0360907  
C271     C      0.037080000000     0.181360000000     0.984270000000     0.0359827  
C272     C      0.036790000000     0.182820000000     0.539820000000     0.0307657  
C273     C      0.992300000000     0.844890000000     0.732540000000     0.0304948  
C274     C      0.993060000000     0.849600000000     0.787990000000     0.030466   
C275     C      0.036950000000     0.849790000000     0.787680000000     0.0306507  
C276     C      0.036470000000     0.844990000000     0.732230000000     0.030331   
C277     C      0.850380000000     0.992740000000     0.738700000000     0.0303722  
C278     C      0.845520000000     0.991670000000     0.794140000000     0.0304617  
C279     C      0.845640000000     0.035860000000     0.794570000000     0.0304308  
C280     C      0.850550000000     0.036600000000     0.739140000000     0.030673   
C281     C      0.992400000000     0.846420000000     0.537890000000     0.0307836  
C282     C      0.992270000000     0.846020000000     0.982330000000     0.0358934  
C283     C      0.036350000000     0.846330000000     0.982360000000     0.0359707  
C284     C      0.036370000000     0.846300000000     0.537930000000     0.0305307  
C285     C      0.847470000000     0.991800000000     0.539630000000     0.0304209  
C286     C      0.847220000000     0.991610000000     0.984060000000     0.0362118  
C287     C      0.847210000000     0.035610000000     0.983900000000     0.0360406  
C288     C      0.847890000000     0.035850000000     0.539460000000     0.0306402  
C289     C      0.153920000000     0.659330000000     0.781300000000     0.0321915  
C290     C      0.208990000000     0.658240000000     0.743800000000     0.0321401  
C291     C      0.207150000000     0.702200000000     0.741640000000     0.0317784  
C292     C      0.155100000000     0.703300000000     0.781470000000     0.0323829  
C293     C      0.209060000000     0.369790000000     0.784780000000     0.0321807  
C294     C      0.154280000000     0.370230000000     0.747030000000     0.0322115  
C295     C      0.155810000000     0.326310000000     0.745560000000     0.0322789  
C296     C      0.207540000000     0.325760000000     0.785640000000     0.0318338  
C297     C      0.208680000000     0.659360000000     0.033180000000     0.0312378  
C298     C      0.154480000000     0.658220000000     0.494970000000     0.0321533  
C299     C      0.156120000000     0.702150000000     0.493010000000     0.0321292  
C300     C      0.207210000000     0.703380000000     0.033540000000     0.0304523  
C301     C      0.156950000000     0.369870000000     0.535760000000     0.0322775  
C302     C      0.209680000000     0.370220000000     0.996400000000     0.0383463  
C303     C      0.208180000000     0.326280000000     0.995150000000     0.0380747  
C304     C      0.158740000000     0.325840000000     0.536820000000     0.0326136  
C305     C      0.144980000000     0.511640000000     0.873880000000     0.0303833  
C306     C      0.219010000000     0.518480000000     0.873830000000     0.0302949  
C307     C      0.219090000000     0.518090000000     0.906740000000     0.0302891  
C308     C      0.145060000000     0.511220000000     0.906790000000     0.0302581  
C309     C      0.219160000000     0.510940000000     0.623890000000     0.0302084  
C310     C      0.145080000000     0.517350000000     0.623840000000     0.0302923  
C311     C      0.145000000000     0.516960000000     0.656730000000     0.0302054  
C312     C      0.219080000000     0.510530000000     0.656790000000     0.0302039  
C313     C      0.370270000000     0.152950000000     0.780120000000     0.0322373  
C314     C      0.370370000000     0.208340000000     0.742870000000     0.0322064  
C315     C      0.326340000000     0.206910000000     0.741700000000     0.031766   
C316     C      0.326340000000     0.154560000000     0.781330000000     0.0322776  
C317     C      0.658750000000     0.207770000000     0.784590000000     0.0322639  
C318     C      0.659430000000     0.152900000000     0.746920000000     0.0322295  
C319     C      0.703390000000     0.154300000000     0.746290000000     0.0322639  
C320     C      0.702750000000     0.206150000000     0.786280000000     0.0318134  
C321     C      0.370460000000     0.154380000000     0.533520000000     0.0327657  
C322     C      0.370680000000     0.209290000000     0.495860000000     0.0324539  
C323     C      0.326730000000     0.207750000000     0.494540000000     0.0326479  
C324     C      0.326450000000     0.156030000000     0.534650000000     0.0325452  
C325     C      0.659540000000     0.152010000000     0.029340000000     0.0315057  
C326     C      0.659130000000     0.207810000000     0.492420000000     0.0325105  
C327     C      0.703120000000     0.206240000000     0.490880000000     0.0318503  
C328     C      0.703510000000     0.153520000000     0.030250000000     0.0308527  
C329     C      0.510750000000     0.215940000000     0.904590000000     0.0305651  
C330     C      0.513930000000     0.141650000000     0.904630000000     0.0305547  
C331     C      0.514020000000     0.141750000000     0.871650000000     0.0307238  
C332     C      0.510540000000     0.216020000000     0.871760000000     0.0303486  
C333     C      0.515410000000     0.145490000000     0.654560000000     0.0299709  
C334     C      0.518800000000     0.219770000000     0.654750000000     0.0301834  
C335     C      0.518680000000     0.219920000000     0.621760000000     0.0300872  
C336     C      0.515550000000     0.145640000000     0.621740000000     0.0302386  
C337     C      0.818960000000     0.369130000000     0.743330000000     0.0324838  
C338     C      0.874830000000     0.370470000000     0.780170000000     0.0324794  
C339     C      0.873220000000     0.326570000000     0.782360000000     0.0322475  
C340     C      0.820420000000     0.325100000000     0.743080000000     0.0318938  
C341     C      0.876380000000     0.658400000000     0.777040000000     0.0325372  
C342     C      0.819420000000     0.659030000000     0.741140000000     0.0324572  
C343     C      0.821020000000     0.703080000000     0.740240000000     0.031732   
C344     C      0.875010000000     0.702320000000     0.778610000000     0.0322914  
C345     C      0.874670000000     0.369110000000     0.491880000000     0.0322536  
C346     C      0.820260000000     0.369580000000     0.029930000000     0.0310853  
C347     C      0.821980000000     0.325600000000     0.031540000000     0.0303659  
C348     C      0.873310000000     0.325130000000     0.491180000000     0.032296   
C349     C      0.874990000000     0.657960000000     0.528360000000     0.0322605  
C350     C      0.819750000000     0.658300000000     0.990980000000     0.0384187  
C351     C      0.821230000000     0.702310000000     0.990060000000     0.0371484  
C352     C      0.873430000000     0.701900000000     0.529800000000     0.0322409  
C353     C      0.808270000000     0.512430000000     0.901240000000     0.0305049  
C354     C      0.882540000000     0.515900000000     0.901100000000     0.030371   
C355     C      0.882420000000     0.516210000000     0.868270000000     0.0305078  
C356     C      0.808140000000     0.513010000000     0.868260000000     0.0303668  
C357     C      0.812050000000     0.515370000000     0.651110000000     0.0303006  
C358     C      0.886330000000     0.512040000000     0.651130000000     0.030245   
C359     C      0.886220000000     0.512060000000     0.618150000000     0.0304033  
C360     C      0.811950000000     0.515660000000     0.618300000000     0.0301093  
C361     C      0.326720000000     0.873340000000     0.743790000000     0.032178   
C362     C      0.325850000000     0.820670000000     0.783190000000     0.031963   
C363     C      0.369880000000     0.819130000000     0.782480000000     0.0325488  
C364     C      0.370650000000     0.874870000000     0.745520000000     0.0325882  
C365     C      0.659060000000     0.876120000000     0.747780000000     0.0326085  
C366     C      0.659270000000     0.818990000000     0.783530000000     0.0325121  
C367     C      0.703300000000     0.820600000000     0.784750000000     0.0316936  
C368     C      0.703000000000     0.874790000000     0.746520000000     0.0322051  
C369     C      0.369420000000     0.874960000000     0.031320000000     0.0312129  
C370     C      0.370540000000     0.820200000000     0.493560000000     0.0321492  
C371     C      0.326590000000     0.822030000000     0.491410000000     0.0317877  
C372     C      0.325440000000     0.873760000000     0.031470000000     0.0308893  
C373     C      0.658400000000     0.874750000000     0.995820000000     0.038584   
C374     C      0.659140000000     0.819720000000     0.533370000000     0.0321569  
C375     C      0.703170000000     0.821090000000     0.533930000000     0.0317369  
C376     C      0.702320000000     0.873050000000     0.994010000000     0.0375603  
C377     C      0.516430000000     0.811920000000     0.873460000000     0.0306315  
C378     C      0.513090000000     0.886200000000     0.873430000000     0.0306943  
C379     C      0.513140000000     0.886110000000     0.906400000000     0.030734   
C380     C      0.516760000000     0.811840000000     0.906280000000     0.0305299  
C381     C      0.515950000000     0.882440000000     0.623470000000     0.0299858  
C382     C      0.512500000000     0.808170000000     0.623310000000     0.0301566  
C383     C      0.513030000000     0.808020000000     0.656300000000     0.0300371  
C384     C      0.516210000000     0.882300000000     0.656300000000     0.0301645  
H1       H      0.182160000000     0.976830000000     0.211040000000     0.033169   
H2       H      0.182570000000     0.976030000000     0.311790000000     0.0334362  
H3       H      0.182120000000     0.051840000000     0.312130000000     0.0337257  
H4       H      0.182180000000     0.052920000000     0.211380000000     0.0328482  
H5       H      0.185270000000     0.053390000000     0.459760000000     0.0332146  
H6       H      0.177960000000     0.051390000000     0.060350000000     0.033629   
H7       H      0.177540000000     0.975950000000     0.059670000000     0.0336735  
H8       H      0.185060000000     0.976970000000     0.459080000000     0.0331231  
H9       H      0.977230000000     0.182090000000     0.315340000000     0.0334163  
H10      H      0.976260000000     0.182590000000     0.214590000000     0.0331657  
H11      H      0.052150000000     0.182230000000     0.214220000000     0.0334134  
H12      H      0.053240000000     0.182170000000     0.314960000000     0.0331891  
H13      H      0.976710000000     0.183390000000     0.062310000000     0.0332319  
H14      H      0.977190000000     0.180190000000     0.461600000000     0.0334815  
H15      H      0.053180000000     0.180780000000     0.461730000000     0.0332401  
H16      H      0.052620000000     0.183560000000     0.062460000000     0.0334942  
H17      H      0.975940000000     0.842920000000     0.210160000000     0.033134   
H18      H      0.977520000000     0.851490000000     0.310700000000     0.033655   
H19      H      0.052990000000     0.851770000000     0.310190000000     0.033672   
H20      H      0.052320000000     0.843090000000     0.209650000000     0.0331184  
H21      H      0.852320000000     0.977340000000     0.215940000000     0.0336317  
H22      H      0.843490000000     0.975170000000     0.316460000000     0.0332259  
H23      H      0.843690000000     0.051630000000     0.317190000000     0.0331408  
H24      H      0.852580000000     0.052730000000     0.216660000000     0.0336305  
H25      H      0.976540000000     0.846470000000     0.060530000000     0.0338105  
H26      H      0.976210000000     0.845900000000     0.459780000000     0.0328695  
H27      H      0.052340000000     0.846300000000     0.459780000000     0.0332226  
H28      H      0.052310000000     0.846390000000     0.060530000000     0.0334246  
H29      H      0.847580000000     0.975890000000     0.062240000000     0.0329181  
H30      H      0.846970000000     0.975600000000     0.461490000000     0.0337866  
H31      H      0.847060000000     0.051470000000     0.461260000000     0.0333832  
H32      H      0.848160000000     0.051920000000     0.062010000000     0.0332933  
H33      H      0.132120000000     0.643420000000     0.297010000000     0.0309402  
H34      H      0.231000000000     0.641380000000     0.228830000000     0.0307486  
H35      H      0.228350000000     0.718170000000     0.225520000000     0.0306978  
H36      H      0.133760000000     0.720110000000     0.297010000000     0.0309365  
H37      H      0.230870000000     0.386020000000     0.300300000000     0.0305652  
H38      H      0.132510000000     0.386790000000     0.231680000000     0.0310755  
H39      H      0.134690000000     0.310140000000     0.229480000000     0.0310809  
H40      H      0.228700000000     0.309120000000     0.301420000000     0.0306239  
H41      H      0.230230000000     0.643420000000     0.549060000000     0.0307442  
H42      H      0.132940000000     0.641360000000     0.979630000000     0.0314406  
H43      H      0.135280000000     0.718050000000     0.976600000000     0.0310692  
H44      H      0.228120000000     0.720270000000     0.549350000000     0.0308403  
H45      H      0.135930000000     0.386180000000     0.051830000000     0.0303262  
H46      H      0.230540000000     0.386760000000     0.480350000000     0.030411   
H47      H      0.228380000000     0.310020000000     0.478470000000     0.0293309  
H48      H      0.138510000000     0.309230000000     0.053270000000     0.0297977  
H49      H      0.114850000000     0.508980000000     0.361980000000     0.0333078  
H50      H      0.249090000000     0.521380000000     0.361890000000     0.0333575  
H51      H      0.249220000000     0.520750000000     0.418650000000     0.0333848  
H52      H      0.114990000000     0.508310000000     0.418740000000     0.0332589  
H53      H      0.249300000000     0.508460000000     0.111980000000     0.033259   
H54      H      0.114990000000     0.520080000000     0.111890000000     0.0334397  
H55      H      0.114860000000     0.519450000000     0.168640000000     0.0335323  
H56      H      0.249170000000     0.507810000000     0.168740000000     0.0333924  
H57      H      0.386610000000     0.130900000000     0.295390000000     0.0311773  
H58      H      0.386830000000     0.230360000000     0.227660000000     0.0306995  
H59      H      0.309920000000     0.228360000000     0.226020000000     0.0308339  
H60      H      0.309950000000     0.133240000000     0.297130000000     0.0311662  
H61      H      0.642070000000     0.229650000000     0.299780000000     0.0307536  
H62      H      0.643340000000     0.131120000000     0.231300000000     0.0308718  
H63      H      0.720020000000     0.133120000000     0.230530000000     0.0309519  
H64      H      0.718900000000     0.227360000000     0.302290000000     0.0308294  
H65      H      0.386840000000     0.132490000000     0.048900000000     0.0296704  
H66      H      0.387190000000     0.231060000000     0.980470000000     0.0304319  
H67      H      0.310400000000     0.228840000000     0.978530000000     0.0293104  
H68      H      0.309890000000     0.134920000000     0.050500000000     0.0298252  
H69      H      0.643320000000     0.129860000000     0.544590000000     0.0303272  
H70      H      0.642510000000     0.230040000000     0.977480000000     0.0308545  
H71      H      0.719390000000     0.227790000000     0.975200000000     0.0308646  
H72      H      0.720090000000     0.132040000000     0.545820000000     0.030623   
H73      H      0.509430000000     0.246200000000     0.416440000000     0.0335461  
H74      H      0.515320000000     0.111510000000     0.416620000000     0.0333894  
H75      H      0.515390000000     0.111620000000     0.359630000000     0.0335854  
H76      H      0.509170000000     0.246290000000     0.359930000000     0.0333395  
H77      H      0.514060000000     0.115200000000     0.166360000000     0.033086   
H78      H      0.520090000000     0.249870000000     0.166810000000     0.0332858  
H79      H      0.519970000000     0.250090000000     0.109790000000     0.0328356  
H80      H      0.514230000000     0.115390000000     0.109870000000     0.0332693  
H81      H      0.796750000000     0.385000000000     0.227920000000     0.0301443  
H82      H      0.897070000000     0.387430000000     0.294890000000     0.0304791  
H83      H      0.894770000000     0.310760000000     0.298320000000     0.0307602  
H84      H      0.798850000000     0.308090000000     0.227850000000     0.0305985  
H85      H      0.898990000000     0.641760000000     0.291650000000     0.0304821  
H86      H      0.796680000000     0.642850000000     0.226360000000     0.0301235  
H87      H      0.798980000000     0.719810000000     0.225210000000     0.0305101  
H88      H      0.897040000000     0.718420000000     0.294040000000     0.0309069  
H89      H      0.896240000000     0.385290000000     0.976150000000     0.0315541  
H90      H      0.798580000000     0.386180000000     0.545320000000     0.0307027  
H91      H      0.801040000000     0.309370000000     0.547720000000     0.0307555  
H92      H      0.894330000000     0.308560000000     0.975260000000     0.0313029  
H93      H      0.896970000000     0.641430000000     0.043560000000     0.0307843  
H94      H      0.797780000000     0.642020000000     0.475620000000     0.0307113  
H95      H      0.799890000000     0.718880000000     0.474380000000     0.030756   
H96      H      0.894730000000     0.718140000000     0.045710000000     0.0310214  
H97      H      0.778160000000     0.510930000000     0.413270000000     0.0333358  
H98      H      0.912830000000     0.517120000000     0.412920000000     0.0333443  
H99      H      0.912660000000     0.517710000000     0.356420000000     0.0334626  
H100     H      0.777970000000     0.511810000000     0.356270000000     0.0331173  
H101     H      0.781800000000     0.516730000000     0.162970000000     0.0335222  
H102     H      0.916480000000     0.510610000000     0.163110000000     0.0331529  
H103     H      0.916330000000     0.510690000000     0.106120000000     0.0331402  
H104     H      0.781670000000     0.517120000000     0.106480000000     0.0330873  
H105     H      0.310650000000     0.894820000000     0.227930000000     0.0306873  
H106     H      0.309080000000     0.799170000000     0.298620000000     0.0305702  
H107     H      0.386000000000     0.796950000000     0.297770000000     0.0301736  
H108     H      0.387360000000     0.897040000000     0.230580000000     0.0303223  
H109     H      0.642590000000     0.898810000000     0.233130000000     0.0304031  
H110     H      0.642930000000     0.796180000000     0.298150000000     0.030227   
H111     H      0.719850000000     0.798490000000     0.299830000000     0.0306047  
H112     H      0.719280000000     0.896910000000     0.231280000000     0.0309046  
H113     H      0.385320000000     0.896640000000     0.547120000000     0.030874   
H114     H      0.387400000000     0.798320000000     0.978490000000     0.0314153  
H115     H      0.310650000000     0.800960000000     0.975170000000     0.0311456  
H116     H      0.308600000000     0.894970000000     0.547090000000     0.0309519  
H117     H      0.641710000000     0.896670000000     0.480670000000     0.03111    
H118     H      0.643030000000     0.797870000000     0.048920000000     0.0302938  
H119     H      0.719910000000     0.799790000000     0.049530000000     0.0305036  
H120     H      0.718380000000     0.894200000000     0.477900000000     0.031196   
H121     H      0.517790000000     0.781660000000     0.361610000000     0.0336347  
H122     H      0.511630000000     0.916350000000     0.361440000000     0.0333611  
H123     H      0.511770000000     0.916240000000     0.418420000000     0.0336276  
H124     H      0.518240000000     0.781570000000     0.418100000000     0.0333752  
H125     H      0.517180000000     0.912730000000     0.111670000000     0.0329445  
H126     H      0.511030000000     0.778060000000     0.111260000000     0.0330537  
H127     H      0.511820000000     0.777850000000     0.168270000000     0.0329993  
H128     H      0.517680000000     0.912540000000     0.168170000000     0.0333098  
H129     H      0.182160000000     0.976830000000     0.711040000000     0.0331682  
H130     H      0.182570000000     0.976030000000     0.811790000000     0.0335505  
H131     H      0.182120000000     0.051840000000     0.812130000000     0.0338379  
H132     H      0.182180000000     0.052920000000     0.711380000000     0.0328472  
H133     H      0.185270000000     0.053390000000     0.959760000000     0.0329236  
H134     H      0.177960000000     0.051390000000     0.560350000000     0.0335514  
H135     H      0.177540000000     0.975950000000     0.559670000000     0.0335938  
H136     H      0.185060000000     0.976970000000     0.959080000000     0.032838   
H137     H      0.977230000000     0.182090000000     0.815340000000     0.0335147  
H138     H      0.976260000000     0.182590000000     0.714590000000     0.0331755  
H139     H      0.052150000000     0.182230000000     0.714210000000     0.0334068  
H140     H      0.053240000000     0.182170000000     0.814960000000     0.0332926  
H141     H      0.976710000000     0.183390000000     0.562310000000     0.0331894  
H142     H      0.977190000000     0.180190000000     0.961600000000     0.0331203  
H143     H      0.053180000000     0.180780000000     0.961730000000     0.0328962  
H144     H      0.052620000000     0.183560000000     0.562460000000     0.033407   
H145     H      0.975930000000     0.842920000000     0.710160000000     0.0331503  
H146     H      0.977520000000     0.851490000000     0.810700000000     0.0337716  
H147     H      0.052990000000     0.851770000000     0.810190000000     0.0337519  
H148     H      0.052320000000     0.843090000000     0.709650000000     0.0331233  
H149     H      0.852320000000     0.977340000000     0.715940000000     0.0336368  
H150     H      0.843490000000     0.975170000000     0.816460000000     0.0333219  
H151     H      0.843690000000     0.051630000000     0.817190000000     0.0332515  
H152     H      0.852580000000     0.052730000000     0.716660000000     0.0336334  
H153     H      0.976540000000     0.846470000000     0.560530000000     0.0337117  
H154     H      0.976210000000     0.845900000000     0.959780000000     0.0325485  
H155     H      0.052340000000     0.846300000000     0.959780000000     0.0328578  
H156     H      0.052310000000     0.846390000000     0.560530000000     0.0333909  
H157     H      0.847580000000     0.975890000000     0.562240000000     0.032846   
H158     H      0.846960000000     0.975600000000     0.961490000000     0.0333909  
H159     H      0.847060000000     0.051470000000     0.961260000000     0.0330652  
H160     H      0.848150000000     0.051920000000     0.562010000000     0.0332317  
H161     H      0.132120000000     0.643420000000     0.797010000000     0.0310535  
H162     H      0.231000000000     0.641380000000     0.728830000000     0.0308272  
H163     H      0.228350000000     0.718170000000     0.725520000000     0.0307226  
H164     H      0.133760000000     0.720110000000     0.797010000000     0.0310233  
H165     H      0.230870000000     0.386020000000     0.800290000000     0.0307364  
H166     H      0.132510000000     0.386790000000     0.731680000000     0.0310982  
H167     H      0.134690000000     0.310140000000     0.729480000000     0.0310956  
H168     H      0.228700000000     0.309120000000     0.801420000000     0.0307213  
H169     H      0.230230000000     0.643420000000     0.049060000000     0.0304179  
H170     H      0.132930000000     0.641360000000     0.479630000000     0.0308114  
H171     H      0.135280000000     0.718050000000     0.476590000000     0.0308376  
H172     H      0.228120000000     0.720270000000     0.049350000000     0.0306064  
H173     H      0.135930000000     0.386180000000     0.551830000000     0.030579   
H174     H      0.230540000000     0.386760000000     0.980350000000     0.0309633  
H175     H      0.228380000000     0.310020000000     0.978460000000     0.0294193  
H176     H      0.138520000000     0.309230000000     0.553270000000     0.0299025  
H177     H      0.114850000000     0.508980000000     0.861980000000     0.0335161  
H178     H      0.249090000000     0.521390000000     0.861890000000     0.0336643  
H179     H      0.249220000000     0.520750000000     0.918650000000     0.0342392  
H180     H      0.114990000000     0.508310000000     0.918740000000     0.0340951  
H181     H      0.249300000000     0.508460000000     0.611990000000     0.0335557  
H182     H      0.114990000000     0.520080000000     0.611890000000     0.0336161  
H183     H      0.114860000000     0.519460000000     0.668640000000     0.0335893  
H184     H      0.249170000000     0.507810000000     0.668740000000     0.0335513  
H185     H      0.386610000000     0.130900000000     0.795390000000     0.0312979  
H186     H      0.386830000000     0.230360000000     0.727660000000     0.0307823  
H187     H      0.309920000000     0.228360000000     0.726020000000     0.0308944  
H188     H      0.309950000000     0.133240000000     0.797130000000     0.031274   
H189     H      0.642070000000     0.229650000000     0.799780000000     0.0309232  
H190     H      0.643340000000     0.131120000000     0.731300000000     0.0308893  
H191     H      0.720020000000     0.133120000000     0.730530000000     0.0309634  
H192     H      0.718900000000     0.227360000000     0.802290000000     0.0309768  
H193     H      0.386840000000     0.132490000000     0.548900000000     0.0299016  
H194     H      0.387190000000     0.231060000000     0.480470000000     0.0298603  
H195     H      0.310400000000     0.228840000000     0.478530000000     0.0291934  
H196     H      0.309890000000     0.134920000000     0.550500000000     0.0299149  
H197     H      0.643320000000     0.129860000000     0.044590000000     0.0300256  
H198     H      0.642510000000     0.230040000000     0.477480000000     0.0302233  
H199     H      0.719390000000     0.227790000000     0.475200000000     0.0305085  
H200     H      0.720090000000     0.132040000000     0.045820000000     0.030454   
H201     H      0.509430000000     0.246200000000     0.916440000000     0.0343278  
H202     H      0.515320000000     0.111510000000     0.916620000000     0.0342466  
H203     H      0.515390000000     0.111620000000     0.859630000000     0.0338243  
H204     H      0.509170000000     0.246290000000     0.859930000000     0.0336272  
H205     H      0.514060000000     0.115200000000     0.666360000000     0.0331323  
H206     H      0.520090000000     0.249870000000     0.666810000000     0.0334457  
H207     H      0.519970000000     0.250090000000     0.609790000000     0.0331853  
H208     H      0.514230000000     0.115390000000     0.609870000000     0.033394   
H209     H      0.796750000000     0.385000000000     0.727920000000     0.0302064  
H210     H      0.897070000000     0.387430000000     0.794890000000     0.0305832  
H211     H      0.894770000000     0.310750000000     0.798320000000     0.0308565  
H212     H      0.798850000000     0.308090000000     0.727840000000     0.0306405  
H213     H      0.898990000000     0.641760000000     0.791650000000     0.030589   
H214     H      0.796680000000     0.642850000000     0.726360000000     0.0301974  
H215     H      0.798980000000     0.719810000000     0.725210000000     0.0305567  
H216     H      0.897040000000     0.718420000000     0.794040000000     0.0309978  
H217     H      0.896240000000     0.385290000000     0.476150000000     0.0309829  
H218     H      0.798580000000     0.386180000000     0.045320000000     0.0303679  
H219     H      0.801040000000     0.309370000000     0.047720000000     0.0305076  
H220     H      0.894330000000     0.308560000000     0.475260000000     0.0310513  
H221     H      0.896970000000     0.641430000000     0.543570000000     0.0310869  
H222     H      0.797780000000     0.642020000000     0.975620000000     0.0313361  
H223     H      0.799890000000     0.718880000000     0.974390000000     0.0310953  
H224     H      0.894720000000     0.718140000000     0.545710000000     0.031187   
H225     H      0.778160000000     0.510930000000     0.913270000000     0.0341913  
H226     H      0.912830000000     0.517120000000     0.912920000000     0.0341234  
H227     H      0.912660000000     0.517710000000     0.856420000000     0.0336562  
H228     H      0.777970000000     0.511810000000     0.856270000000     0.0334282  
H229     H      0.781800000000     0.516730000000     0.662970000000     0.0336632  
H230     H      0.916480000000     0.510610000000     0.663110000000     0.0332054  
H231     H      0.916330000000     0.510690000000     0.606120000000     0.0333512  
H232     H      0.781670000000     0.517120000000     0.606480000000     0.0333893  
H233     H      0.310650000000     0.894820000000     0.727930000000     0.0306915  
H234     H      0.309080000000     0.799170000000     0.798620000000     0.0306907  
H235     H      0.386000000000     0.796950000000     0.797770000000     0.030351   
H236     H      0.387360000000     0.897040000000     0.730580000000     0.0303367  
H237     H      0.642590000000     0.898810000000     0.733130000000     0.0304265  
H238     H      0.642930000000     0.796180000000     0.798150000000     0.0303975  
H239     H      0.719850000000     0.798490000000     0.799830000000     0.030739   
H240     H      0.719280000000     0.896910000000     0.731280000000     0.0309206  
H241     H      0.385320000000     0.896650000000     0.047120000000     0.03062    
H242     H      0.387400000000     0.798320000000     0.478490000000     0.0307801  
H243     H      0.310650000000     0.800960000000     0.475170000000     0.030775   
H244     H      0.308600000000     0.894970000000     0.047090000000     0.0308392  
H245     H      0.641710000000     0.896670000000     0.980670000000     0.0317662  
H246     H      0.643030000000     0.797870000000     0.548920000000     0.0306356  
H247     H      0.719910000000     0.799790000000     0.549530000000     0.0307328  
H248     H      0.718390000000     0.894200000000     0.977900000000     0.0314529  
H249     H      0.517790000000     0.781660000000     0.861610000000     0.0339508  
H250     H      0.511630000000     0.916350000000     0.861440000000     0.0336021  
H251     H      0.511770000000     0.916240000000     0.918420000000     0.0344675  
H252     H      0.518240000000     0.781570000000     0.918100000000     0.0342505  
H253     H      0.517180000000     0.912730000000     0.611670000000     0.0331114  
H254     H      0.511030000000     0.778060000000     0.611260000000     0.0333544  
H255     H      0.511820000000     0.777850000000     0.668270000000     0.0331222  
H256     H      0.517680000000     0.912540000000     0.668170000000     0.0333477  
N1       N      0.182340000000     0.970390000000     0.261410000000    -0.189484   
N2       N      0.182070000000     0.058420000000     0.261750000000    -0.189536   
N3       N      0.181670000000     0.058450000000     0.510100000000    -0.189562   
N4       N      0.181290000000     0.970400000000     0.009290000000    -0.191903   
N5       N      0.970700000000     0.182280000000     0.264970000000    -0.189551   
N6       N      0.058730000000     0.182110000000     0.264590000000    -0.189474   
N7       N      0.970910000000     0.181690000000     0.511970000000    -0.189424   
N8       N      0.058940000000     0.182130000000     0.012070000000    -0.192161   
N9       N      0.970680000000     0.847160000000     0.260460000000    -0.189419   
N10      N      0.058720000000     0.847440000000     0.259850000000    -0.189363   
N11      N      0.847850000000     0.970200000000     0.266150000000    -0.189251   
N12      N      0.848120000000     0.058250000000     0.267020000000    -0.189332   
N13      N      0.970330000000     0.846250000000     0.010110000000    -0.19202    
N14      N      0.058350000000     0.846420000000     0.510180000000    -0.189475   
N15      N      0.847290000000     0.969710000000     0.511930000000    -0.189547   
N16      N      0.847670000000     0.057720000000     0.011590000000    -0.192073   
N17      N      0.181700000000     0.637090000000     0.263130000000    -0.190631   
N18      N      0.181080000000     0.724440000000     0.261170000000    -0.190684   
N19      N      0.181720000000     0.391710000000     0.266000000000    -0.190675   
N20      N      0.181750000000     0.304340000000     0.265380000000    -0.190642   
N21      N      0.181580000000     0.637100000000     0.514440000000    -0.190577   
N22      N      0.181750000000     0.724450000000     0.012850000000    -0.193105   
N23      N      0.183120000000     0.391720000000     0.516020000000    -0.190474   
N24      N      0.183370000000     0.304390000000     0.515810000000    -0.190947   
N25      N      0.181960000000     0.515210000000     0.357410000000    -0.189414   
N26      N      0.182120000000     0.514440000000     0.423220000000    -0.189363   
N27      N      0.182160000000     0.514350000000     0.107430000000    -0.189467   
N28      N      0.182010000000     0.513600000000     0.173200000000    -0.189589   
N29      N      0.392020000000     0.180660000000     0.261550000000    -0.190744   
N30      N      0.304650000000     0.180880000000     0.261620000000    -0.190731   
N31      N      0.637390000000     0.180470000000     0.265410000000    -0.190608   
N32      N      0.724760000000     0.180290000000     0.266440000000    -0.190649   
N33      N      0.392230000000     0.181730000000     0.014670000000    -0.194564   
N34      N      0.304930000000     0.181820000000     0.014460000000    -0.193416   
N35      N      0.637660000000     0.180020000000     0.011130000000    -0.194608   
N36      N      0.724990000000     0.179980000000     0.510510000000    -0.190677   
N37      N      0.512560000000     0.178810000000     0.421050000000    -0.18964    
N38      N      0.512430000000     0.178980000000     0.355270000000    -0.189454   
N39      N      0.516950000000     0.182520000000     0.171100000000    -0.189487   
N40      N      0.517000000000     0.182810000000     0.105300000000    -0.189473   
N41      N      0.846940000000     0.391480000000     0.261260000000    -0.190874   
N42      N      0.846800000000     0.304160000000     0.263200000000    -0.190652   
N43      N      0.847760000000     0.637020000000     0.259020000000    -0.190813   
N44      N      0.847950000000     0.724390000000     0.259710000000    -0.190541   
N45      N      0.847340000000     0.391040000000     0.010630000000    -0.194368   
N46      N      0.847670000000     0.303670000000     0.011530000000    -0.193145   
N47      N      0.847360000000     0.636440000000     0.009580000000    -0.194391   
N48      N      0.847270000000     0.723790000000     0.510100000000    -0.190713   
N49      N      0.845510000000     0.513920000000     0.417610000000    -0.189532   
N50      N      0.845260000000     0.514770000000     0.351820000000    -0.189633   
N51      N      0.849200000000     0.513630000000     0.167560000000    -0.189737   
N52      N      0.848990000000     0.513930000000     0.101790000000    -0.18956    
N53      N      0.304610000000     0.846970000000     0.263200000000    -0.190663   
N54      N      0.391940000000     0.846980000000     0.264230000000    -0.190922   
N55      N      0.637470000000     0.847410000000     0.265570000000    -0.190913   
N56      N      0.724840000000     0.847650000000     0.265510000000    -0.190485   
N57      N      0.391670000000     0.847350000000     0.513000000000    -0.190485   
N58      N      0.304320000000     0.847950000000     0.511030000000    -0.190588   
N59      N      0.637080000000     0.847290000000     0.514870000000    -0.190706   
N60      N      0.724430000000     0.846940000000     0.013610000000    -0.193127   
N61      N      0.514630000000     0.849060000000     0.357010000000    -0.189805   
N62      N      0.515000000000     0.848880000000     0.422770000000    -0.189612   
N63      N      0.514040000000     0.845420000000     0.106940000000    -0.189427   
N64      N      0.514790000000     0.845130000000     0.172750000000    -0.189594   
N65      N      0.182340000000     0.970390000000     0.761410000000    -0.189482   
N66      N      0.182070000000     0.058420000000     0.761750000000    -0.189534   
N67      N      0.181670000000     0.058450000000     0.010100000000    -0.192095   
N68      N      0.181290000000     0.970400000000     0.509290000000    -0.189364   
N69      N      0.970700000000     0.182280000000     0.764970000000    -0.189548   
N70      N      0.058730000000     0.182110000000     0.764590000000    -0.189477   
N71      N      0.970910000000     0.181690000000     0.011970000000    -0.191969   
N72      N      0.058940000000     0.182130000000     0.512080000000    -0.189616   
N73      N      0.970680000000     0.847160000000     0.760460000000    -0.189395   
N74      N      0.058720000000     0.847440000000     0.759850000000    -0.189378   
N75      N      0.847850000000     0.970200000000     0.766150000000    -0.189257   
N76      N      0.848120000000     0.058250000000     0.767020000000    -0.189334   
N77      N      0.970330000000     0.846250000000     0.510110000000    -0.189507   
N78      N      0.058350000000     0.846420000000     0.010180000000    -0.192036   
N79      N      0.847290000000     0.969710000000     0.011920000000    -0.192088   
N80      N      0.847670000000     0.057720000000     0.511590000000    -0.189532   
N81      N      0.181700000000     0.637090000000     0.763130000000    -0.190607   
N82      N      0.181080000000     0.724440000000     0.761170000000    -0.190698   
N83      N      0.181720000000     0.391710000000     0.766000000000    -0.190648   
N84      N      0.181750000000     0.304340000000     0.765380000000    -0.190656   
N85      N      0.181580000000     0.637100000000     0.014440000000    -0.194288   
N86      N      0.181750000000     0.724450000000     0.512850000000    -0.190558   
N87      N      0.183120000000     0.391720000000     0.016020000000    -0.194197   
N88      N      0.183370000000     0.304390000000     0.015810000000    -0.193372   
N89      N      0.181960000000     0.515210000000     0.857410000000    -0.189407   
N90      N      0.182120000000     0.514450000000     0.923220000000    -0.188791   
N91      N      0.182160000000     0.514360000000     0.607430000000    -0.189627   
N92      N      0.182010000000     0.513600000000     0.673200000000    -0.189495   
N93      N      0.392020000000     0.180660000000     0.761550000000    -0.190729   
N94      N      0.304650000000     0.180880000000     0.761620000000    -0.190722   
N95      N      0.637390000000     0.180470000000     0.765410000000    -0.190592   
N96      N      0.724760000000     0.180290000000     0.766440000000    -0.190636   
N97      N      0.392230000000     0.181730000000     0.514670000000    -0.190845   
N98      N      0.304930000000     0.181820000000     0.514460000000    -0.190937   
N99      N      0.637660000000     0.180020000000     0.511130000000    -0.190882   
N100     N      0.724990000000     0.179980000000     0.010510000000    -0.193144   
N101     N      0.512560000000     0.178810000000     0.921050000000    -0.189079   
N102     N      0.512430000000     0.178980000000     0.855270000000    -0.189426   
N103     N      0.516950000000     0.182520000000     0.671100000000    -0.189469   
N104     N      0.517000000000     0.182810000000     0.605300000000    -0.189572   
N105     N      0.846940000000     0.391480000000     0.761260000000    -0.190861   
N106     N      0.846800000000     0.304160000000     0.763200000000    -0.19064    
N107     N      0.847760000000     0.637020000000     0.759020000000    -0.190797   
N108     N      0.847950000000     0.724390000000     0.759710000000    -0.190545   
N109     N      0.847340000000     0.391040000000     0.510630000000    -0.19062    
N110     N      0.847670000000     0.303670000000     0.511520000000    -0.19069    
N111     N      0.847360000000     0.636440000000     0.509580000000    -0.190661   
N112     N      0.847270000000     0.723790000000     0.010100000000    -0.19317    
N113     N      0.845510000000     0.513920000000     0.917610000000    -0.188974   
N114     N      0.845260000000     0.514770000000     0.851820000000    -0.189618   
N115     N      0.849200000000     0.513630000000     0.667560000000    -0.189729   
N116     N      0.848990000000     0.513930000000     0.601790000000    -0.189635   
N117     N      0.304610000000     0.846970000000     0.763200000000    -0.190663   
N118     N      0.391940000000     0.846980000000     0.764230000000    -0.19086    
N119     N      0.637470000000     0.847410000000     0.765570000000    -0.19089    
N120     N      0.724840000000     0.847650000000     0.765510000000    -0.190484   
N121     N      0.391670000000     0.847350000000     0.013010000000    -0.19421    
N122     N      0.304320000000     0.847950000000     0.011040000000    -0.19296    
N123     N      0.637080000000     0.847290000000     0.014870000000    -0.194407   
N124     N      0.724430000000     0.846940000000     0.513610000000    -0.190656   
N125     N      0.514630000000     0.849060000000     0.857010000000    -0.189775   
N126     N      0.515000000000     0.848880000000     0.922770000000    -0.189043   
N127     N      0.514040000000     0.845420000000     0.606940000000    -0.189501   
N128     N      0.514790000000     0.845130000000     0.672750000000    -0.189597   
O1       O      0.516780000000     0.881190000000     0.059820000000    -0.554546   
O2       O      0.511930000000     0.883270000000     0.470470000000    -0.554803   
O3       O      0.454580000000     0.882130000000     0.017460000000    -0.555153   
O4       O      0.574100000000     0.882300000000     0.512700000000    -0.554924   
O5       O      0.574170000000     0.812160000000     0.017650000000    -0.553791   
O6       O      0.454670000000     0.812180000000     0.511210000000    -0.553607   
O7       O      0.517820000000     0.813180000000     0.469890000000    -0.555801   
O8       O      0.511030000000     0.811100000000     0.059180000000    -0.552468   
O9       O      0.514140000000     0.883430000000     0.309040000000    -0.553136   
O10      O      0.515170000000     0.881030000000     0.219620000000    -0.559631   
O11      O      0.454830000000     0.882160000000     0.263090000000    -0.556199   
O12      O      0.574460000000     0.882360000000     0.263910000000    -0.556122   
O13      O      0.574630000000     0.811960000000     0.266450000000    -0.554579   
O14      O      0.454860000000     0.811820000000     0.266310000000    -0.554791   
O15      O      0.514720000000     0.810710000000     0.220750000000    -0.552139   
O16      O      0.514760000000     0.813110000000     0.310180000000    -0.559402   
O17      O      0.881260000000     0.516440000000     0.464730000000    -0.555877   
O18      O      0.883340000000     0.511030000000     0.054070000000    -0.553319   
O19      O      0.882200000000     0.453970000000     0.506830000000    -0.554846   
O20      O      0.882360000000     0.573470000000     0.012000000000    -0.555131   
O21      O      0.812220000000     0.573520000000     0.507060000000    -0.554062   
O22      O      0.812250000000     0.454010000000     0.013090000000    -0.554323   
O23      O      0.813260000000     0.516910000000     0.054680000000    -0.554327   
O24      O      0.811180000000     0.510660000000     0.465360000000    -0.554008   
O25      O      0.883590000000     0.513330000000     0.215540000000    -0.553089   
O26      O      0.881180000000     0.514940000000     0.304960000000    -0.559791   
O27      O      0.882240000000     0.454330000000     0.261760000000    -0.556135   
O28      O      0.882620000000     0.573950000000     0.260500000000    -0.556266   
O29      O      0.812220000000     0.574220000000     0.257940000000    -0.554326   
O30      O      0.811900000000     0.454430000000     0.258540000000    -0.554505   
O31      O      0.810870000000     0.514600000000     0.303820000000    -0.552345   
O32      O      0.813280000000     0.514040000000     0.214400000000    -0.559537   
O33      O      0.513630000000     0.144470000000     0.469050000000    -0.552762   
O34      O      0.515780000000     0.146910000000     0.058450000000    -0.558152   
O35      O      0.454870000000     0.146060000000     0.515480000000    -0.555023   
O36      O      0.574560000000     0.145290000000     0.013750000000    -0.555777   
O37      O      0.574970000000     0.215640000000     0.510580000000    -0.555394   
O38      O      0.455330000000     0.216460000000     0.012760000000    -0.556825   
O39      O      0.516630000000     0.217230000000     0.057300000000    -0.550888   
O40      O      0.513660000000     0.214790000000     0.467870000000    -0.559303   
O41      O      0.516250000000     0.144610000000     0.307570000000    -0.554451   
O42      O      0.513150000000     0.146750000000     0.218170000000    -0.556186   
O43      O      0.574480000000     0.145700000000     0.261140000000    -0.555532   
O44      O      0.454920000000     0.145670000000     0.264620000000    -0.555389   
O45      O      0.455010000000     0.215810000000     0.259730000000    -0.553314   
O46      O      0.574400000000     0.215650000000     0.267370000000    -0.553468   
O47      O      0.518930000000     0.216840000000     0.218890000000    -0.553625   
O48      O      0.510470000000     0.214710000000     0.308120000000    -0.555078   
O49      O      0.147190000000     0.517610000000     0.060000000000    -0.553543   
O50      O      0.147200000000     0.510730000000     0.470690000000    -0.55429    
O51      O      0.147610000000     0.454420000000     0.018630000000    -0.553553   
O52      O      0.146880000000     0.573900000000     0.512140000000    -0.553857   
O53      O      0.216870000000     0.574390000000     0.018070000000    -0.554564   
O54      O      0.217600000000     0.454880000000     0.512620000000    -0.554433   
O55      O      0.217200000000     0.517560000000     0.470650000000    -0.554383   
O56      O      0.217260000000     0.511690000000     0.060010000000    -0.553661   
O57      O      0.146910000000     0.516800000000     0.220590000000    -0.555194   
O58      O      0.146880000000     0.512060000000     0.309980000000    -0.554772   
O59      O      0.146920000000     0.574200000000     0.267490000000    -0.555154   
O60      O      0.146860000000     0.454700000000     0.262950000000    -0.555355   
O61      O      0.216860000000     0.454650000000     0.268800000000    -0.553195   
O62      O      0.216930000000     0.574110000000     0.261660000000    -0.553302   
O63      O      0.216930000000     0.518270000000     0.309930000000    -0.554309   
O64      O      0.216960000000     0.510510000000     0.220660000000    -0.554354   
O65      O      0.906200000000     0.844270000000     0.484360000000    -0.551503   
O66      O      0.786460000000     0.850910000000     0.486310000000    -0.553825   
O67      O      0.849040000000     0.906630000000     0.485550000000    -0.558231   
O68      O      0.842380000000     0.787310000000     0.484720000000    -0.554473   
O69      O      0.851690000000     0.786150000000     0.036900000000    -0.552165   
O70      O      0.845370000000     0.905870000000     0.038030000000    -0.549998   
O71      O      0.788260000000     0.842220000000     0.038540000000    -0.552545   
O72      O      0.907530000000     0.848570000000     0.036810000000    -0.556208   
O73      O      0.906200000000     0.845220000000     0.235340000000    -0.552521   
O74      O      0.786730000000     0.852580000000     0.238320000000    -0.555735   
O75      O      0.849630000000     0.907970000000     0.238530000000    -0.556896   
O76      O      0.842170000000     0.788610000000     0.235290000000    -0.55261    
O77      O      0.852680000000     0.785990000000     0.287310000000    -0.555189   
O78      O      0.845560000000     0.905490000000     0.290970000000    -0.551711   
O79      O      0.788790000000     0.841560000000     0.290300000000    -0.552192   
O80      O      0.908220000000     0.848790000000     0.287800000000    -0.556578   
O81      O      0.845610000000     0.121290000000     0.485240000000    -0.553301   
O82      O      0.851770000000     0.240880000000     0.485350000000    -0.555725   
O83      O      0.907840000000     0.178640000000     0.485530000000    -0.556922   
O84      O      0.788340000000     0.184750000000     0.484820000000    -0.553575   
O85      O      0.787480000000     0.176630000000     0.037110000000    -0.552757   
O86      O      0.907040000000     0.183740000000     0.037950000000    -0.550332   
O87      O      0.843160000000     0.240540000000     0.037600000000    -0.550872   
O88      O      0.850130000000     0.121080000000     0.037690000000    -0.554298   
O89      O      0.850420000000     0.121130000000     0.240470000000    -0.560804   
O90      O      0.842570000000     0.240230000000     0.238430000000    -0.556108   
O91      O      0.906810000000     0.183920000000     0.239100000000    -0.554866   
O92      O      0.787360000000     0.176190000000     0.240040000000    -0.557301   
O93      O      0.788090000000     0.185840000000     0.292180000000    -0.551591   
O94      O      0.907670000000     0.180010000000     0.291570000000    -0.554812   
O95      O      0.851400000000     0.242250000000     0.290640000000    -0.552293   
O96      O      0.845490000000     0.122360000000     0.292890000000    -0.548679   
O97      O      0.180980000000     0.120770000000     0.037640000000    -0.556028   
O98      O      0.181150000000     0.240380000000     0.040790000000    -0.55164    
O99      O      0.121880000000     0.180940000000     0.038710000000    -0.5567     
O100     O      0.241420000000     0.179090000000     0.039970000000    -0.552823   
O101     O      0.242740000000     0.183880000000     0.487420000000    -0.555184   
O102     O      0.122920000000     0.183030000000     0.486180000000    -0.552681   
O103     O      0.183900000000     0.242700000000     0.488180000000    -0.556215   
O104     O      0.183030000000     0.123030000000     0.485130000000    -0.552985   
O105     O      0.179900000000     0.121150000000     0.288640000000    -0.557923   
O106     O      0.186630000000     0.240520000000     0.290410000000    -0.55417    
O107     O      0.122850000000     0.183600000000     0.290260000000    -0.552915   
O108     O      0.242430000000     0.176830000000     0.288550000000    -0.555567   
O109     O      0.241000000000     0.186190000000     0.236380000000    -0.55331    
O110     O      0.121550000000     0.179950000000     0.237780000000    -0.557144   
O111     O      0.177540000000     0.242280000000     0.238220000000    -0.554826   
O112     O      0.183800000000     0.122620000000     0.236180000000    -0.55237    
O113     O      0.121850000000     0.844890000000     0.036540000000    -0.553147   
O114     O      0.241280000000     0.852170000000     0.036800000000    -0.554933   
O115     O      0.178500000000     0.907490000000     0.035790000000    -0.558304   
O116     O      0.185770000000     0.788330000000     0.037750000000    -0.553742   
O117     O      0.177960000000     0.786450000000     0.485450000000    -0.552315   
O118     O      0.184060000000     0.906310000000     0.483410000000    -0.548792   
O119     O      0.241420000000     0.842760000000     0.484630000000    -0.551056   
O120     O      0.121780000000     0.848740000000     0.484060000000    -0.554176   
O121     O      0.121610000000     0.850090000000     0.286430000000    -0.559948   
O122     O      0.240840000000     0.842700000000     0.288260000000    -0.555468   
O123     O      0.184240000000     0.906670000000     0.287440000000    -0.555662   
O124     O      0.176920000000     0.787290000000     0.287140000000    -0.558058   
O125     O      0.186390000000     0.787500000000     0.234980000000    -0.551041   
O126     O      0.180200000000     0.907170000000     0.234970000000    -0.554132   
O127     O      0.242560000000     0.851060000000     0.236000000000    -0.553179   
O128     O      0.122790000000     0.844770000000     0.234030000000    -0.549697   
O129     O      0.516780000000     0.881190000000     0.559820000000    -0.555866   
O130     O      0.511930000000     0.883270000000     0.970470000000    -0.5487     
O131     O      0.454580000000     0.882130000000     0.517460000000    -0.554947   
O132     O      0.574100000000     0.882300000000     0.012700000000    -0.556181   
O133     O      0.574170000000     0.812160000000     0.517660000000    -0.553511   
O134     O      0.454670000000     0.812180000000     0.011210000000    -0.554842   
O135     O      0.517820000000     0.813180000000     0.969880000000    -0.549363   
O136     O      0.511030000000     0.811100000000     0.559180000000    -0.553617   
O137     O      0.514140000000     0.883430000000     0.809040000000    -0.553045   
O138     O      0.515170000000     0.881030000000     0.719620000000    -0.559631   
O139     O      0.454830000000     0.882170000000     0.763090000000    -0.556032   
O140     O      0.574460000000     0.882360000000     0.763910000000    -0.556064   
O141     O      0.574630000000     0.811960000000     0.766450000000    -0.554393   
O142     O      0.454860000000     0.811820000000     0.766310000000    -0.554797   
O143     O      0.514720000000     0.810710000000     0.720750000000    -0.552113   
O144     O      0.514760000000     0.813110000000     0.810180000000    -0.559297   
O145     O      0.881260000000     0.516440000000     0.964730000000    -0.549798   
O146     O      0.883340000000     0.511030000000     0.554070000000    -0.554619   
O147     O      0.882200000000     0.453970000000     0.006830000000    -0.556152   
O148     O      0.882360000000     0.573470000000     0.512010000000    -0.554826   
O149     O      0.812220000000     0.573520000000     0.007060000000    -0.555363   
O150     O      0.812250000000     0.454010000000     0.513090000000    -0.554045   
O151     O      0.813260000000     0.516910000000     0.554680000000    -0.55562    
O152     O      0.811180000000     0.510660000000     0.965360000000    -0.54791    
O153     O      0.883590000000     0.513330000000     0.715540000000    -0.553092   
O154     O      0.881180000000     0.514940000000     0.804960000000    -0.559724   
O155     O      0.882240000000     0.454330000000     0.761760000000    -0.556119   
O156     O      0.882620000000     0.573950000000     0.760500000000    -0.556244   
O157     O      0.812220000000     0.574220000000     0.757940000000    -0.554269   
O158     O      0.811900000000     0.454430000000     0.758550000000    -0.554461   
O159     O      0.810870000000     0.514600000000     0.803820000000    -0.55223    
O160     O      0.813280000000     0.514040000000     0.714400000000    -0.559529   
O161     O      0.513630000000     0.144470000000     0.969050000000    -0.546595   
O162     O      0.515780000000     0.146910000000     0.558450000000    -0.559559   
O163     O      0.454870000000     0.146060000000     0.015480000000    -0.555347   
O164     O      0.574560000000     0.145290000000     0.513750000000    -0.555423   
O165     O      0.574970000000     0.215640000000     0.010580000000    -0.556604   
O166     O      0.455330000000     0.216460000000     0.512760000000    -0.555608   
O167     O      0.516630000000     0.217230000000     0.557300000000    -0.552063   
O168     O      0.513660000000     0.214790000000     0.967880000000    -0.553392   
O169     O      0.516250000000     0.144610000000     0.807570000000    -0.554375   
O170     O      0.513150000000     0.146750000000     0.718170000000    -0.556187   
O171     O      0.574480000000     0.145700000000     0.761140000000    -0.555502   
O172     O      0.454920000000     0.145670000000     0.764620000000    -0.555363   
O173     O      0.455010000000     0.215810000000     0.759730000000    -0.553259   
O174     O      0.574400000000     0.215650000000     0.767370000000    -0.553414   
O175     O      0.518930000000     0.216840000000     0.718890000000    -0.553592   
O176     O      0.510470000000     0.214710000000     0.808120000000    -0.554988   
O177     O      0.147190000000     0.517610000000     0.560000000000    -0.554788   
O178     O      0.147200000000     0.510730000000     0.970690000000    -0.548207   
O179     O      0.147610000000     0.454420000000     0.518630000000    -0.553295   
O180     O      0.146880000000     0.573900000000     0.012140000000    -0.555127   
O181     O      0.216870000000     0.574390000000     0.518070000000    -0.554309   
O182     O      0.217600000000     0.454880000000     0.012620000000    -0.555751   
O183     O      0.217200000000     0.517560000000     0.970650000000    -0.548281   
O184     O      0.217260000000     0.511690000000     0.560010000000    -0.554853   
O185     O      0.146910000000     0.516800000000     0.720590000000    -0.555284   
O186     O      0.146880000000     0.512070000000     0.809980000000    -0.554722   
O187     O      0.146920000000     0.574200000000     0.767490000000    -0.555116   
O188     O      0.146860000000     0.454700000000     0.762950000000    -0.555338   
O189     O      0.216860000000     0.454650000000     0.768800000000    -0.553143   
O190     O      0.216930000000     0.574110000000     0.761660000000    -0.553242   
O191     O      0.216930000000     0.518270000000     0.809930000000    -0.554218   
O192     O      0.216960000000     0.510510000000     0.720660000000    -0.554413   
O193     O      0.906200000000     0.844270000000     0.984360000000    -0.545074   
O194     O      0.786460000000     0.850910000000     0.986310000000    -0.547443   
O195     O      0.849040000000     0.906630000000     0.985550000000    -0.551918   
O196     O      0.842380000000     0.787310000000     0.984720000000    -0.547868   
O197     O      0.851690000000     0.786150000000     0.536900000000    -0.554672   
O198     O      0.845370000000     0.905870000000     0.538030000000    -0.55249    
O199     O      0.788260000000     0.842220000000     0.538540000000    -0.555087   
O200     O      0.907530000000     0.848570000000     0.536810000000    -0.558849   
O201     O      0.906200000000     0.845220000000     0.735340000000    -0.552644   
O202     O      0.786730000000     0.852580000000     0.738320000000    -0.55574    
O203     O      0.849630000000     0.907970000000     0.738530000000    -0.5569     
O204     O      0.842170000000     0.788600000000     0.735290000000    -0.552552   
O205     O      0.852680000000     0.785990000000     0.787310000000    -0.555193   
O206     O      0.845560000000     0.905490000000     0.790970000000    -0.551732   
O207     O      0.788790000000     0.841560000000     0.790300000000    -0.552182   
O208     O      0.908220000000     0.848790000000     0.787800000000    -0.556475   
O209     O      0.845610000000     0.121290000000     0.985240000000    -0.54686    
O210     O      0.851770000000     0.240880000000     0.985350000000    -0.549375   
O211     O      0.907840000000     0.178640000000     0.985530000000    -0.550625   
O212     O      0.788340000000     0.184740000000     0.984820000000    -0.547096   
O213     O      0.787480000000     0.176630000000     0.537110000000    -0.555382   
O214     O      0.907040000000     0.183740000000     0.537950000000    -0.552835   
O215     O      0.843160000000     0.240540000000     0.537600000000    -0.553401   
O216     O      0.850130000000     0.121080000000     0.537690000000    -0.556927   
O217     O      0.850420000000     0.121130000000     0.740470000000    -0.560821   
O218     O      0.842570000000     0.240230000000     0.738430000000    -0.55608    
O219     O      0.906810000000     0.183920000000     0.739100000000    -0.554865   
O220     O      0.787360000000     0.176190000000     0.740040000000    -0.557289   
O221     O      0.788090000000     0.185840000000     0.792180000000    -0.551513   
O222     O      0.907670000000     0.180010000000     0.791570000000    -0.554793   
O223     O      0.851400000000     0.242250000000     0.790640000000    -0.55211    
O224     O      0.845490000000     0.122360000000     0.792890000000    -0.548763   
O225     O      0.180980000000     0.120770000000     0.537640000000    -0.558664   
O226     O      0.181150000000     0.240380000000     0.540790000000    -0.554247   
O227     O      0.121880000000     0.180940000000     0.538710000000    -0.559345   
O228     O      0.241420000000     0.179090000000     0.539970000000    -0.555368   
O229     O      0.242740000000     0.183880000000     0.987420000000    -0.548787   
O230     O      0.122920000000     0.183030000000     0.986180000000    -0.546254   
O231     O      0.183900000000     0.242700000000     0.988170000000    -0.549636   
O232     O      0.183030000000     0.123030000000     0.985130000000    -0.546558   
O233     O      0.179900000000     0.121150000000     0.788640000000    -0.557892   
O234     O      0.186630000000     0.240520000000     0.790410000000    -0.554119   
O235     O      0.122850000000     0.183600000000     0.790260000000    -0.552883   
O236     O      0.242430000000     0.176830000000     0.788550000000    -0.555512   
O237     O      0.241000000000     0.186190000000     0.736380000000    -0.553295   
O238     O      0.121550000000     0.179950000000     0.737780000000    -0.557145   
O239     O      0.177540000000     0.242280000000     0.738220000000    -0.554809   
O240     O      0.183800000000     0.122620000000     0.736180000000    -0.552375   
O241     O      0.121850000000     0.844890000000     0.536540000000    -0.555658   
O242     O      0.241280000000     0.852170000000     0.536800000000    -0.557652   
O243     O      0.178500000000     0.907490000000     0.535790000000    -0.560939   
O244     O      0.185770000000     0.788330000000     0.537760000000    -0.556099   
O245     O      0.177960000000     0.786450000000     0.985450000000    -0.546004   
O246     O      0.184060000000     0.906310000000     0.983410000000    -0.542386   
O247     O      0.241420000000     0.842760000000     0.984620000000    -0.544356   
O248     O      0.121780000000     0.848730000000     0.984060000000    -0.547897   
O249     O      0.121610000000     0.850090000000     0.786430000000    -0.56007    
O250     O      0.240840000000     0.842710000000     0.788260000000    -0.555422   
O251     O      0.184240000000     0.906670000000     0.787440000000    -0.555622   
O252     O      0.176920000000     0.787290000000     0.787140000000    -0.558028   
O253     O      0.186390000000     0.787500000000     0.734980000000    -0.551019   
O254     O      0.180200000000     0.907170000000     0.734970000000    -0.55413    
O255     O      0.242560000000     0.851060000000     0.736000000000    -0.553043   
O256     O      0.122790000000     0.844770000000     0.734030000000    -0.549707   
V1       V      0.514340000000     0.885100000000     0.015180000000     1.38569    
V2       V      0.514420000000     0.809270000000     0.514460000000     1.39164    
V3       V      0.514640000000     0.885050000000     0.264020000000     1.39673    
V4       V      0.514750000000     0.809090000000     0.265800000000     1.39459    
V5       V      0.885170000000     0.513720000000     0.509350000000     1.39304    
V6       V      0.809340000000     0.513770000000     0.010080000000     1.38432    
V7       V      0.885210000000     0.514130000000     0.260570000000     1.39693    
V8       V      0.809250000000     0.514340000000     0.258780000000     1.39442    
V9       V      0.514690000000     0.142880000000     0.514070000000     1.39463    
V10      V      0.515180000000     0.218840000000     0.012250000000     1.38833    
V11      V      0.514700000000     0.142810000000     0.262820000000     1.39454    
V12      V      0.514710000000     0.218640000000     0.263560000000     1.39042    
V13      V      0.144320000000     0.514150000000     0.015360000000     1.38172    
V14      V      0.220130000000     0.514650000000     0.515340000000     1.39355    
V15      V      0.144010000000     0.514440000000     0.265270000000     1.39375    
V16      V      0.219820000000     0.514390000000     0.265290000000     1.39025    
V17      V      0.846060000000     0.847190000000     0.483080000000     1.39093    
V18      V      0.848140000000     0.845770000000     0.039720000000     1.38417    
V19      V      0.846170000000     0.848590000000     0.234710000000     1.39181    
V20      V      0.848780000000     0.845420000000     0.291260000000     1.38948    
V21      V      0.848290000000     0.181290000000     0.483080000000     1.39256    
V22      V      0.847030000000     0.180630000000     0.039740000000     1.38175    
V23      V      0.846860000000     0.180420000000     0.237380000000     1.4032     
V24      V      0.848070000000     0.182600000000     0.294010000000     1.38024    
V25      V      0.181420000000     0.180280000000     0.041360000000     1.38979    
V26      V      0.183060000000     0.183150000000     0.484620000000     1.38952    
V27      V      0.182900000000     0.180590000000     0.291620000000     1.39405    
V28      V      0.181040000000     0.182720000000     0.234980000000     1.39068    
V29      V      0.181740000000     0.848170000000     0.038850000000     1.39414    
V30      V      0.181440000000     0.846090000000     0.482200000000     1.37933    
V31      V      0.180970000000     0.846780000000     0.289450000000     1.40309    
V32      V      0.182960000000     0.847510000000     0.232810000000     1.38061    
V33      V      0.514340000000     0.885100000000     0.515180000000     1.39351    
V34      V      0.514420000000     0.809270000000     0.014470000000     1.38322    
V35      V      0.514640000000     0.885050000000     0.764020000000     1.39665    
V36      V      0.514740000000     0.809090000000     0.765800000000     1.39475    
V37      V      0.885170000000     0.513720000000     0.009350000000     1.38502    
V38      V      0.809340000000     0.513770000000     0.510080000000     1.39244    
V39      V      0.885210000000     0.514130000000     0.760570000000     1.39688    
V40      V      0.809250000000     0.514340000000     0.758780000000     1.39462    
V41      V      0.514690000000     0.142880000000     0.014070000000     1.38678    
V42      V      0.515180000000     0.218840000000     0.512250000000     1.39637    
V43      V      0.514700000000     0.142810000000     0.762820000000     1.3945     
V44      V      0.514710000000     0.218640000000     0.763560000000     1.39061    
V45      V      0.144320000000     0.514150000000     0.515360000000     1.38963    
V46      V      0.220130000000     0.514650000000     0.015340000000     1.3854     
V47      V      0.144010000000     0.514440000000     0.765270000000     1.39373    
V48      V      0.219820000000     0.514390000000     0.765290000000     1.39044    
V49      V      0.846060000000     0.847190000000     0.983080000000     1.3958     
V50      V      0.848140000000     0.845770000000     0.539720000000     1.39425    
V51      V      0.846170000000     0.848590000000     0.734710000000     1.39176    
V52      V      0.848780000000     0.845420000000     0.791270000000     1.38971    
V53      V      0.848290000000     0.181290000000     0.983080000000     1.3975     
V54      V      0.847030000000     0.180630000000     0.539740000000     1.39187    
V55      V      0.846860000000     0.180420000000     0.737380000000     1.40308    
V56      V      0.848070000000     0.182590000000     0.794010000000     1.38036    
V57      V      0.181420000000     0.180280000000     0.541360000000     1.39997    
V58      V      0.183060000000     0.183150000000     0.984620000000     1.39439    
V59      V      0.182900000000     0.180590000000     0.791620000000     1.39418    
V60      V      0.181040000000     0.182720000000     0.734980000000     1.39057    
V61      V      0.181740000000     0.848170000000     0.538850000000     1.40429    
V62      V      0.181440000000     0.846090000000     0.982200000000     1.38432    
V63      V      0.180970000000     0.846780000000     0.789450000000     1.4033     
V64      V      0.182950000000     0.847510000000     0.732810000000     1.38043    


