data_structure

_audit_creation_method RASPA-1.0
_audit_creation_date 2023-6-5
_audit_author_name 'Poobodin Mano'

_cell_length_a    34.7247
_cell_length_b    34.7225
_cell_length_c    20.6987
_cell_angle_alpha 89.9808
_cell_angle_beta  90.0192
_cell_angle_gamma 119.98
_cell_volume      21617.8

_symmetry_cell_setting          triclinic
_symmetry_space_group_name_Hall 'P 1'
_symmetry_space_group_name_H-M  'P 1'
_symmetry_Int_Tables_number     1

_symmetry_equiv_pos_as_xyz 'x,y,z'

loop_
_atom_site_label
_atom_site_type_symbol
_atom_site_fract_x
_atom_site_fract_y
_atom_site_fract_z
_atom_site_charge
C1       C      0.878140000000     0.684950000000     0.539810000000     0.47788    
C2       C      0.836210000000     0.680430000000     0.775380000000     0.477675   
C3       C      0.776350000000     0.644810000000     0.622520000000     0.476494   
C4       C      0.938010000000     0.720570000000     0.692660000000     0.476445   
C5       C      0.211450000000     0.868130000000     0.706420000000     0.477762   
C6       C      0.169590000000     0.830740000000     0.942020000000     0.477777   
C7       C      0.109680000000     0.806450000000     0.789210000000     0.476477   
C8       C      0.271360000000     0.892420000000     0.859220000000     0.476447   
C9       C      0.502970000000     0.013930000000     0.108440000000     0.477744   
C10      C      0.544850000000     0.018410000000     0.872860000000     0.477751   
C11      C      0.604750000000     0.054040000000     0.025680000000     0.476396   
C12      C      0.443070000000     0.978290000000     0.955630000000     0.476259   
C13      C      0.169630000000     0.347190000000     0.441790000000     0.477604   
C14      C      0.211510000000     0.351670000000     0.206210000000     0.477695   
C15      C      0.271410000000     0.387290000000     0.359030000000     0.47644    
C16      C      0.109730000000     0.311570000000     0.288980000000     0.476414   
C17      C      0.836270000000     0.164110000000     0.275180000000     0.477742   
C18      C      0.878180000000     0.201500000000     0.039590000000     0.47761    
C19      C      0.938060000000     0.225760000000     0.192430000000     0.476494   
C20      C      0.776400000000     0.139860000000     0.122330000000     0.476503   
C21      C      0.544880000000     0.534750000000     0.372850000000     0.477762   
C22      C      0.502960000000     0.497350000000     0.608430000000     0.477802   
C23      C      0.443090000000     0.473100000000     0.455580000000     0.476611   
C24      C      0.604740000000     0.559000000000     0.525710000000     0.47635    
C25      C      0.171830000000     0.351700000000     0.706200000000     0.477848   
C26      C      0.209260000000     0.347170000000     0.941810000000     0.477755   
C27      C      0.233530000000     0.311580000000     0.788990000000     0.47657    
C28      C      0.147560000000     0.387290000000     0.859040000000     0.476725   
C29      C      0.359510000000     0.164090000000     0.775160000000     0.477738   
C30      C      0.355000000000     0.201520000000     0.539550000000     0.477799   
C31      C      0.319380000000     0.225780000000     0.692360000000     0.476573   
C32      C      0.395130000000     0.139840000000     0.622350000000     0.476494   
C33      C      0.021580000000     0.534750000000     0.873070000000     0.478304   
C34      C      0.026120000000     0.497330000000     0.108660000000     0.478311   
C35      C      0.061730000000     0.473070000000     0.955820000000     0.476567   
C36      C      0.985980000000     0.559000000000     0.025900000000     0.47605    
C37      C      0.688300000000     0.868140000000     0.206220000000     0.477776   
C38      C      0.692800000000     0.830740000000     0.441830000000     0.47794    
C39      C      0.728410000000     0.806450000000     0.289050000000     0.476657   
C40      C      0.652700000000     0.892430000000     0.359010000000     0.476736   
C41      C      0.875890000000     0.680440000000     0.275400000000     0.477637   
C42      C      0.838480000000     0.684940000000     0.039790000000     0.477749   
C43      C      0.814220000000     0.720570000000     0.192570000000     0.476581   
C44      C      0.900160000000     0.644810000000     0.122610000000     0.476799   
C45      C      0.505220000000     0.018430000000     0.372840000000     0.477739   
C46      C      0.542640000000     0.013900000000     0.608450000000     0.477733   
C47      C      0.566900000000     0.978290000000     0.455630000000     0.476542   
C48      C      0.480960000000     0.054040000000     0.525660000000     0.476484   
C49      C      0.355000000000     0.161790000000     0.039570000000     0.477977   
C50      C      0.359510000000     0.203720000000     0.275140000000     0.477772   
C51      C      0.395130000000     0.263580000000     0.122300000000     0.476631   
C52      C      0.319370000000     0.101920000000     0.192420000000     0.476598   
C53      C      0.542630000000     0.537010000000     0.108430000000     0.477503   
C54      C      0.505230000000     0.495130000000     0.872840000000     0.477798   
C55      C      0.480970000000     0.435240000000     0.025670000000     0.476421   
C56      C      0.566890000000     0.596900000000     0.955610000000     0.476538   
C57      C      0.171850000000     0.828510000000     0.206430000000     0.477855   
C58      C      0.209250000000     0.870410000000     0.442010000000     0.477867   
C59      C      0.233530000000     0.930290000000     0.289160000000     0.476609   
C60      C      0.147580000000     0.768630000000     0.359270000000     0.476472   
C61      C      0.026090000000     0.537050000000     0.608650000000     0.47816    
C62      C      0.021620000000     0.495180000000     0.373070000000     0.478389   
C63      C      0.985980000000     0.435280000000     0.525870000000     0.475759   
C64      C      0.061730000000     0.596960000000     0.455850000000     0.476604   
C65      C      0.875880000000     0.203700000000     0.775180000000     0.47799    
C66      C      0.838490000000     0.161820000000     0.539590000000     0.477853   
C67      C      0.814220000000     0.101920000000     0.692410000000     0.476767   
C68      C      0.900140000000     0.263590000000     0.622370000000     0.476618   
C69      C      0.692800000000     0.870360000000     0.941810000000     0.477662   
C70      C      0.688310000000     0.828470000000     0.706240000000     0.477821   
C71      C      0.652700000000     0.768580000000     0.859050000000     0.476638   
C72      C      0.728410000000     0.930250000000     0.788990000000     0.476567   
C73      C      0.793920000000     0.994730000000     0.753660000000     0.0301549  
C74      C      0.725850000000     0.994410000000     0.753080000000     0.031188   
C75      C      0.747530000000     0.037780000000     0.728280000000     0.0313852  
C76      C      0.815260000000     0.037430000000     0.727770000000     0.0303313  
C77      C      0.988530000000     0.371110000000     0.561760000000     0.0304931  
C78      C      0.920460000000     0.370800000000     0.561160000000     0.030166   
C79      C      0.899110000000     0.328100000000     0.587030000000     0.0302443  
C80      C      0.966840000000     0.327740000000     0.586530000000     0.0315369  
C81      C      0.127250000000     0.661430000000     0.420540000000     0.030234   
C82      C      0.059190000000     0.661130000000     0.419940000000     0.031338   
C83      C      0.080880000000     0.704500000000     0.395150000000     0.0313604  
C84      C      0.148600000000     0.704140000000     0.394650000000     0.0303063  
C85      C      0.633590000000     0.661050000000     0.919730000000     0.0312357  
C86      C      0.565850000000     0.661400000000     0.920250000000     0.0302208  
C87      C      0.587200000000     0.704100000000     0.894370000000     0.0303194  
C88      C      0.655270000000     0.704420000000     0.894950000000     0.0312406  
C89      C      0.253860000000     0.037470000000     0.227800000000     0.0304104  
C90      C      0.321910000000     0.037760000000     0.228400000000     0.0313363  
C91      C      0.300230000000     0.994400000000     0.253240000000     0.0312337  
C92      C      0.232500000000     0.994780000000     0.253730000000     0.0301048  
C93      C      0.460640000000     0.328040000000     0.086950000000     0.0303256  
C94      C      0.392580000000     0.327740000000     0.086360000000     0.0312903  
C95      C      0.414270000000     0.371110000000     0.061550000000     0.0312891  
C96      C      0.482000000000     0.370740000000     0.061040000000     0.030215   
C97      C      0.652000000000     0.801500000000     0.538730000000     0.0306696  
C98      C      0.730430000000     0.842150000000     0.541960000000     0.0314514  
C99      C      0.729110000000     0.840030000000     0.609350000000     0.0306831  
C100     C      0.650680000000     0.802290000000     0.606120000000     0.0314616  
C101     C      0.650680000000     0.856710000000     0.106080000000     0.0314544  
C102     C      0.729110000000     0.897360000000     0.109320000000     0.0306957  
C103     C      0.730430000000     0.896550000000     0.041930000000     0.0314573  
C104     C      0.652000000000     0.858820000000     0.038690000000     0.0307001  
C105     C      0.725840000000     0.739730000000     0.253210000000     0.0313333  
C106     C      0.793910000000     0.807450000000     0.253750000000     0.0302313  
C107     C      0.815260000000     0.786090000000     0.227880000000     0.030267   
C108     C      0.747530000000     0.718030000000     0.228430000000     0.0313024  
C109     C      0.587200000000     0.891420000000     0.394360000000     0.0303129  
C110     C      0.655260000000     0.959140000000     0.394910000000     0.0313137  
C111     C      0.633590000000     0.980830000000     0.419720000000     0.0312223  
C112     C      0.565850000000     0.912770000000     0.420270000000     0.0301952  
C113     C      0.983950000000     0.523340000000     0.772930000000     0.0310595  
C114     C      0.062380000000     0.564010000000     0.776180000000     0.030795   
C115     C      0.063710000000     0.563230000000     0.708780000000     0.0314926  
C116     C      0.985280000000     0.525470000000     0.705540000000     0.0303551  
C117     C      0.063750000000     0.508780000000     0.208800000000     0.0315019  
C118     C      0.985310000000     0.468140000000     0.205560000000     0.0302738  
C119     C      0.983990000000     0.468970000000     0.272950000000     0.0311328  
C120     C      0.062420000000     0.506690000000     0.276190000000     0.0307935  
C121     C      0.988530000000     0.625690000000     0.061840000000     0.0305923  
C122     C      0.920470000000     0.557960000000     0.061300000000     0.0301527  
C123     C      0.899130000000     0.579300000000     0.087240000000     0.0303043  
C124     C      0.966850000000     0.647370000000     0.086680000000     0.0314983  
C125     C      0.397140000000     0.175510000000     0.875300000000     0.0313901  
C126     C      0.318710000000     0.134850000000     0.872050000000     0.0306843  
C127     C      0.317380000000     0.135620000000     0.939440000000     0.0314296  
C128     C      0.395810000000     0.173380000000     0.942690000000     0.0307149  
C129     C      0.317380000000     0.190090000000     0.439410000000     0.0314468  
C130     C      0.395810000000     0.230720000000     0.442650000000     0.0306916  
C131     C      0.397130000000     0.229910000000     0.375260000000     0.0314487  
C132     C      0.318700000000     0.192190000000     0.372020000000     0.0306987  
C133     C      0.460640000000     0.140890000000     0.586970000000     0.0302541  
C134     C      0.392590000000     0.073150000000     0.586420000000     0.0312658  
C135     C      0.414270000000     0.051480000000     0.561580000000     0.0313401  
C136     C      0.481990000000     0.119540000000     0.561040000000     0.0302717  
C137     C      0.148580000000     0.452790000000     0.894450000000     0.0302471  
C138     C      0.080860000000     0.384720000000     0.894990000000     0.0313149  
C139     C      0.059180000000     0.406390000000     0.919860000000     0.0313283  
C140     C      0.127240000000     0.474130000000     0.920400000000     0.0302275  
C141     C      0.321920000000     0.292470000000     0.728260000000     0.0313042  
C142     C      0.253860000000     0.224730000000     0.727710000000     0.0302045  
C143     C      0.232510000000     0.246080000000     0.753620000000     0.0303174  
C144     C      0.300230000000     0.314150000000     0.753080000000     0.0312758  
C145     C      0.514540000000     0.468110000000     0.705350000000     0.0306675  
C146     C      0.476770000000     0.508800000000     0.708520000000     0.0314806  
C147     C      0.475980000000     0.506690000000     0.775920000000     0.0306825  
C148     C      0.516660000000     0.468910000000     0.772740000000     0.031418   
C149     C      0.571070000000     0.523300000000     0.272750000000     0.0314044  
C150     C      0.533310000000     0.564000000000     0.275920000000     0.0307151  
C151     C      0.531190000000     0.563210000000     0.208530000000     0.0314333  
C152     C      0.571860000000     0.525420000000     0.205360000000     0.030667   
C153     C      0.866580000000     0.230720000000     0.942660000000     0.0306728  
C154     C      0.904360000000     0.190050000000     0.939490000000     0.0313796  
C155     C      0.905140000000     0.192150000000     0.872100000000     0.0306754  
C156     C      0.864450000000     0.229920000000     0.875270000000     0.0313696  
C157     C      0.810070000000     0.175550000000     0.375270000000     0.0313733  
C158     C      0.847830000000     0.134850000000     0.372100000000     0.0306854  
C159     C      0.849930000000     0.135630000000     0.439490000000     0.031428   
C160     C      0.809270000000     0.173420000000     0.442660000000     0.0307471  
C161     C      0.142630000000     0.310890000000     0.609310000000     0.0307936  
C162     C      0.183270000000     0.389320000000     0.606070000000     0.0314816  
C163     C      0.181170000000     0.388000000000     0.538670000000     0.0306987  
C164     C      0.143430000000     0.309560000000     0.541920000000     0.0313663  
C165     C      0.197830000000     0.309540000000     0.041940000000     0.0314989  
C166     C      0.238490000000     0.387970000000     0.038700000000     0.0307763  
C167     C      0.237700000000     0.389300000000     0.106090000000     0.0313786  
C168     C      0.199950000000     0.310860000000     0.109330000000     0.0307013  
C169     C      0.002200000000     0.292460000000     0.228290000000     0.0324004  
C170     C      0.002550000000     0.224720000000     0.227790000000     0.0314596  
C171     C      0.045250000000     0.246060000000     0.253670000000     0.0298029  
C172     C      0.045580000000     0.314140000000     0.253080000000     0.031002   
C173     C      0.335890000000     0.452800000000     0.394330000000     0.0301622  
C174     C      0.335570000000     0.384720000000     0.394920000000     0.0312912  
C175     C      0.378940000000     0.406400000000     0.419710000000     0.0312836  
C176     C      0.378600000000     0.474140000000     0.420210000000     0.0303057  
C177     C      0.571050000000     0.056040000000     0.772740000000     0.0314397  
C178     C      0.533310000000     0.977600000000     0.775980000000     0.0306082  
C179     C      0.531210000000     0.976280000000     0.708590000000     0.0314447  
C180     C      0.571850000000     0.054710000000     0.705340000000     0.0307373  
C181     C      0.476790000000     0.976300000000     0.208560000000     0.0314777  
C182     C      0.514530000000     0.054740000000     0.205320000000     0.0306487  
C183     C      0.516650000000     0.056060000000     0.272710000000     0.0314844  
C184     C      0.475990000000     0.977620000000     0.275950000000     0.0306127  
C185     C      0.668900000000     0.051480000000     0.061610000000     0.0312677  
C186     C      0.669220000000     0.119560000000     0.061020000000     0.0302393  
C187     C      0.711910000000     0.140900000000     0.086930000000     0.030268   
C188     C      0.712260000000     0.073160000000     0.086430000000     0.0312782  
C189     C      0.237660000000     0.856690000000     0.606330000000     0.0314986  
C190     C      0.199890000000     0.897380000000     0.609500000000     0.0305878  
C191     C      0.197800000000     0.896600000000     0.542110000000     0.0315876  
C192     C      0.238470000000     0.858820000000     0.538940000000     0.0306434  
C193     C      0.143400000000     0.842180000000     0.042110000000     0.0315107  
C194     C      0.181180000000     0.801510000000     0.038940000000     0.0307512  
C195     C      0.183290000000     0.802300000000     0.106340000000     0.0314957  
C196     C      0.142610000000     0.840070000000     0.109500000000     0.0307193  
C197     C      0.335510000000     0.959130000000     0.895030000000     0.0312746  
C198     C      0.335880000000     0.891400000000     0.894530000000     0.0301902  
C199     C      0.378590000000     0.912770000000     0.920370000000     0.0302732  
C200     C      0.378890000000     0.980830000000     0.919780000000     0.0312321  
C201     C      0.810040000000     0.642800000000     0.875510000000     0.0313932  
C202     C      0.847770000000     0.721240000000     0.872260000000     0.0306074  
C203     C      0.849890000000     0.722560000000     0.939660000000     0.0314456  
C204     C      0.809250000000     0.644130000000     0.942900000000     0.0307143  
C205     C      0.866590000000     0.644140000000     0.442930000000     0.0307073  
C206     C      0.904330000000     0.722570000000     0.439690000000     0.0314505  
C207     C      0.905120000000     0.721250000000     0.372300000000     0.0305837  
C208     C      0.864470000000     0.642810000000     0.375540000000     0.0313995  
C209     C      0.668860000000     0.625690000000     0.561670000000     0.031267   
C210     C      0.669210000000     0.557950000000     0.561160000000     0.0302193  
C211     C      0.711900000000     0.579300000000     0.587110000000     0.0302296  
C212     C      0.712210000000     0.647370000000     0.586530000000     0.0313053  
C213     C      0.002470000000     0.786100000000     0.727990000000     0.0313602  
C214     C      0.002180000000     0.718040000000     0.728580000000     0.0324882  
C215     C      0.045550000000     0.739730000000     0.753360000000     0.0308754  
C216     C      0.045170000000     0.807460000000     0.753870000000     0.0298601  
H1       H      0.813890000000     0.979260000000     0.762640000000     0.0322442  
H2       H      0.690410000000     0.978560000000     0.762080000000     0.0355837  
H3       H      0.727930000000     0.053640000000     0.719250000000     0.035537   
H4       H      0.850690000000     0.052880000000     0.718820000000     0.0321995  
H5       H      0.023970000000     0.386960000000     0.552770000000     0.0360778  
H6       H      0.900500000000     0.386280000000     0.552180000000     0.0322879  
H7       H      0.863680000000     0.312650000000     0.595970000000     0.0322538  
H8       H      0.986430000000     0.311870000000     0.595560000000     0.035358   
H9       H      0.147220000000     0.645960000000     0.429530000000     0.03228    
H10      H      0.023740000000     0.645290000000     0.428930000000     0.0356794  
H11      H      0.061290000000     0.720370000000     0.386110000000     0.0356443  
H12      H      0.184030000000     0.719580000000     0.385710000000     0.0322581  
H13      H      0.653180000000     0.645180000000     0.928760000000     0.0355693  
H14      H      0.530420000000     0.645950000000     0.929200000000     0.0322538  
H15      H      0.567220000000     0.719570000000     0.885390000000     0.03224    
H16      H      0.690710000000     0.720270000000     0.885950000000     0.0355712  
H17      H      0.233890000000     0.052940000000     0.218790000000     0.0322731  
H18      H      0.357350000000     0.053590000000     0.219390000000     0.0355725  
H19      H      0.319810000000     0.978540000000     0.262290000000     0.0355791  
H20      H      0.197080000000     0.979340000000     0.262690000000     0.0323418  
H21      H      0.480610000000     0.312570000000     0.095940000000     0.0322628  
H22      H      0.357140000000     0.311910000000     0.095370000000     0.0355847  
H23      H      0.394680000000     0.386970000000     0.052510000000     0.0355857  
H24      H      0.517420000000     0.386180000000     0.052090000000     0.0323015  
H25      H      0.620690000000     0.786150000000     0.512740000000     0.0307164  
H26      H      0.762620000000     0.859050000000     0.518360000000     0.030571   
H27      H      0.760430000000     0.855990000000     0.635340000000     0.0306896  
H28      H      0.618500000000     0.787000000000     0.629710000000     0.0305805  
H29      H      0.618490000000     0.839830000000     0.129680000000     0.0305894  
H30      H      0.760420000000     0.912700000000     0.135310000000     0.030707   
H31      H      0.762610000000     0.911830000000     0.018340000000     0.030608   
H32      H      0.620690000000     0.842860000000     0.012700000000     0.0307624  
H33      H      0.690400000000     0.720150000000     0.262220000000     0.0355614  
H34      H      0.813880000000     0.842880000000     0.262700000000     0.0322451  
H35      H      0.850680000000     0.806050000000     0.218920000000     0.0322401  
H36      H      0.727940000000     0.682590000000     0.219430000000     0.0355793  
H37      H      0.567220000000     0.855990000000     0.385380000000     0.0322489  
H38      H      0.690700000000     0.978720000000     0.385890000000     0.0355488  
H39      H      0.653180000000     0.016270000000     0.428740000000     0.035608   
H40      H      0.530430000000     0.892810000000     0.429240000000     0.0322774  
H41      H      0.951770000000     0.506430000000     0.796530000000     0.0306084  
H42      H      0.093700000000     0.579360000000     0.802170000000     0.0306988  
H43      H      0.095890000000     0.578530000000     0.685190000000     0.0305889  
H44      H      0.953970000000     0.509500000000     0.679550000000     0.030729   
H45      H      0.095930000000     0.525650000000     0.185200000000     0.0306014  
H46      H      0.954010000000     0.452790000000     0.179570000000     0.0307637  
H47      H      0.951810000000     0.453710000000     0.296550000000     0.0306114  
H48      H      0.093740000000     0.522650000000     0.302180000000     0.0307093  
H49      H      0.023970000000     0.645280000000     0.052810000000     0.0360628  
H50      H      0.900510000000     0.522530000000     0.052320000000     0.032308   
H51      H      0.863710000000     0.559330000000     0.096220000000     0.0322618  
H52      H      0.986440000000     0.682810000000     0.095710000000     0.0353934  
H53      H      0.429320000000     0.192410000000     0.851700000000     0.0305909  
H54      H      0.287400000000     0.119500000000     0.846060000000     0.0307238  
H55      H      0.285190000000     0.120330000000     0.963040000000     0.0305602  
H56      H      0.427120000000     0.189330000000     0.968680000000     0.0306511  
H57      H      0.285190000000     0.173210000000     0.463010000000     0.0306031  
H58      H      0.427120000000     0.246070000000     0.468650000000     0.030708   
H59      H      0.429320000000     0.245180000000     0.351670000000     0.0305793  
H60      H      0.287390000000     0.176230000000     0.346030000000     0.0307353  
H61      H      0.480610000000     0.176310000000     0.595960000000     0.0322578  
H62      H      0.357150000000     0.053560000000     0.595440000000     0.0355863  
H63      H      0.394680000000     0.016040000000     0.552550000000     0.0355599  
H64      H      0.517410000000     0.139510000000     0.552070000000     0.0322557  
H65      H      0.184000000000     0.472760000000     0.885460000000     0.0322581  
H66      H      0.061280000000     0.349280000000     0.885960000000     0.035641   
H67      H      0.023750000000     0.386790000000     0.928890000000     0.0356636  
H68      H      0.147200000000     0.509550000000     0.929390000000     0.0322639  
H69      H      0.357360000000     0.312060000000     0.719250000000     0.0355641  
H70      H      0.233900000000     0.189310000000     0.718730000000     0.0323042  
H71      H      0.197090000000     0.226100000000     0.762580000000     0.0322655  
H72      H      0.319810000000     0.349590000000     0.762110000000     0.0355641  
H73      H      0.530500000000     0.452750000000     0.679390000000     0.0307073  
H74      H      0.461470000000     0.525700000000     0.684900000000     0.0305732  
H75      H      0.460630000000     0.522660000000     0.801880000000     0.0307107  
H76      H      0.533570000000     0.453620000000     0.796370000000     0.0305782  
H77      H      0.586350000000     0.506390000000     0.296370000000     0.0305979  
H78      H      0.517350000000     0.579360000000     0.301890000000     0.0307134  
H79      H      0.514300000000     0.578510000000     0.184910000000     0.0306079  
H80      H      0.587210000000     0.509450000000     0.179390000000     0.0307336  
H81      H      0.850620000000     0.246080000000     0.968630000000     0.030661   
H82      H      0.919660000000     0.173150000000     0.963120000000     0.030494   
H83      H      0.920490000000     0.176170000000     0.846150000000     0.0306303  
H84      H      0.847540000000     0.245200000000     0.851650000000     0.0305674  
H85      H      0.794790000000     0.192470000000     0.351650000000     0.0305988  
H86      H      0.863790000000     0.119490000000     0.346130000000     0.0306882  
H87      H      0.866820000000     0.120330000000     0.463110000000     0.0305451  
H88      H      0.793920000000     0.189400000000     0.468630000000     0.0306903  
H89      H      0.127280000000     0.279580000000     0.635300000000     0.0307401  
H90      H      0.200150000000     0.421510000000     0.629660000000     0.0305735  
H91      H      0.197130000000     0.419310000000     0.512680000000     0.0307297  
H92      H      0.128160000000     0.277380000000     0.518320000000     0.0306694  
H93      H      0.180940000000     0.277350000000     0.018340000000     0.0306452  
H94      H      0.253830000000     0.419290000000     0.012710000000     0.0307436  
H95      H      0.252980000000     0.421480000000     0.129690000000     0.0306302  
H96      H      0.183990000000     0.279550000000     0.135320000000     0.0307533  
H97      H      0.986350000000     0.312060000000     0.219260000000     0.0349947  
H98      H      0.987090000000     0.189290000000     0.218850000000     0.03168    
H99      H      0.060710000000     0.226090000000     0.262650000000     0.0324886  
H100     H      0.061430000000     0.349590000000     0.262070000000     0.0357351  
H101     H      0.320430000000     0.472770000000     0.385350000000     0.0323001  
H102     H      0.319720000000     0.349270000000     0.385930000000     0.0355753  
H103     H      0.394800000000     0.386800000000     0.428740000000     0.0355708  
H104     H      0.394060000000     0.509570000000     0.429150000000     0.0322639  
H105     H      0.586320000000     0.088230000000     0.796330000000     0.0305758  
H106     H      0.517360000000     0.946290000000     0.801970000000     0.0307229  
H107     H      0.514320000000     0.944090000000     0.684990000000     0.0305789  
H108     H      0.587190000000     0.086030000000     0.679350000000     0.0306917  
H109     H      0.461500000000     0.944110000000     0.184960000000     0.0305892  
H110     H      0.530490000000     0.086050000000     0.179330000000     0.0307297  
H111     H      0.533540000000     0.088250000000     0.296310000000     0.0305764  
H112     H      0.460650000000     0.946310000000     0.301940000000     0.0307324  
H113     H      0.653060000000     0.016040000000     0.052610000000     0.0356004  
H114     H      0.653760000000     0.139530000000     0.052030000000     0.0322888  
H115     H      0.727360000000     0.176330000000     0.095880000000     0.0322778  
H116     H      0.728120000000     0.053570000000     0.095470000000     0.0355908  
H117     H      0.252950000000     0.839780000000     0.629950000000     0.0305797  
H118     H      0.183930000000     0.912740000000     0.635460000000     0.0307598  
H119     H      0.180900000000     0.911910000000     0.518480000000     0.0305821  
H120     H      0.253830000000     0.842850000000     0.512980000000     0.0307223  
H121     H      0.128100000000     0.859080000000     0.018490000000     0.0306652  
H122     H      0.197150000000     0.786150000000     0.012980000000     0.0307566  
H123     H      0.200200000000     0.787010000000     0.129960000000     0.0306017  
H124     H      0.127250000000     0.856040000000     0.135460000000     0.0307753  
H125     H      0.319640000000     0.978720000000     0.886020000000     0.0355451  
H126     H      0.320430000000     0.855970000000     0.885590000000     0.0322737  
H127     H      0.394070000000     0.892800000000     0.929330000000     0.0322428  
H128     H      0.394730000000     0.016280000000     0.928750000000     0.035581   
H129     H      0.794760000000     0.610620000000     0.851910000000     0.0305831  
H130     H      0.863720000000     0.752550000000     0.846270000000     0.0306818  
H131     H      0.866780000000     0.754750000000     0.963250000000     0.0304944  
H132     H      0.793910000000     0.612810000000     0.968890000000     0.0306537  
H133     H      0.850640000000     0.612820000000     0.468930000000     0.0306867  
H134     H      0.919600000000     0.754760000000     0.463280000000     0.0305173  
H135     H      0.920450000000     0.752560000000     0.346310000000     0.0306785  
H136     H      0.847590000000     0.610620000000     0.351940000000     0.030583   
H137     H      0.653000000000     0.645280000000     0.552610000000     0.0355747  
H138     H      0.653770000000     0.522530000000     0.552190000000     0.0322718  
H139     H      0.727360000000     0.559330000000     0.596120000000     0.0322698  
H140     H      0.728040000000     0.682810000000     0.595550000000     0.0355599  
H141     H      0.986990000000     0.806060000000     0.719010000000     0.0316848  
H142     H      0.986340000000     0.682590000000     0.719580000000     0.0349627  
H143     H      0.061420000000     0.720150000000     0.762390000000     0.0357509  
H144     H      0.060610000000     0.842890000000     0.762820000000     0.0324449  
N1       N      0.749180000000     0.973030000000     0.765940000000    -0.189484   
N2       N      0.792220000000     0.059140000000     0.715460000000    -0.189585   
N3       N      0.965200000000     0.392490000000     0.548900000000    -0.189267   
N4       N      0.922150000000     0.306380000000     0.599340000000    -0.189549   
N5       N      0.082510000000     0.639750000000     0.432810000000    -0.189463   
N6       N      0.125570000000     0.725860000000     0.382330000000    -0.189539   
N7       N      0.588890000000     0.639690000000     0.932560000000    -0.189438   
N8       N      0.631930000000     0.725800000000     0.882090000000    -0.189535   
N9       N      0.298590000000     0.059150000000     0.215510000000    -0.189534   
N10      N      0.255540000000     0.973060000000     0.266080000000    -0.189474   
N11      N      0.415910000000     0.306360000000     0.099240000000    -0.189509   
N12      N      0.458960000000     0.392450000000     0.048720000000    -0.189407   
N13      N      0.691840000000     0.823780000000     0.506970000000    -0.190373   
N14      N      0.689270000000     0.822480000000     0.641100000000    -0.190345   
N15      N      0.689270000000     0.875090000000     0.141070000000    -0.190325   
N16      N      0.691840000000     0.876360000000     0.006950000000    -0.190254   
N17      N      0.749170000000     0.784420000000     0.266030000000    -0.189527   
N18      N      0.792220000000     0.741350000000     0.215600000000    -0.189543   
N19      N      0.631930000000     0.914450000000     0.382050000000    -0.189522   
N20      N      0.588900000000     0.957510000000     0.432580000000    -0.189491   
N21      N      0.022540000000     0.541720000000     0.807920000000    -0.19013    
N22      N      0.025120000000     0.543030000000     0.673800000000    -0.190104   
N23      N      0.025160000000     0.490390000000     0.173810000000    -0.190134   
N24      N      0.022580000000     0.489170000000     0.307940000000    -0.190193   
N25      N      0.965210000000     0.581000000000     0.048980000000    -0.189363   
N26      N      0.922160000000     0.624040000000     0.099550000000    -0.189636   
N27      N      0.358550000000     0.157130000000     0.840300000000    -0.190334   
N28      N      0.355970000000     0.155810000000     0.974430000000    -0.190446   
N29      N      0.355970000000     0.208470000000     0.474400000000    -0.190336   
N30      N      0.358540000000     0.209720000000     0.340280000000    -0.190323   
N31      N      0.415910000000     0.117840000000     0.599280000000    -0.189475   
N32      N      0.458950000000     0.074810000000     0.548730000000    -0.1895     
N33      N      0.125550000000     0.408050000000     0.882120000000    -0.189539   
N34      N      0.082500000000     0.451080000000     0.932730000000    -0.189541   
N35      N      0.298600000000     0.247780000000     0.715410000000    -0.189505   
N36      N      0.255540000000     0.290810000000     0.765930000000    -0.189515   
N37      N      0.496970000000     0.490400000000     0.673570000000    -0.19036    
N38      N      0.498270000000     0.489130000000     0.807700000000    -0.190338   
N39      N      0.550870000000     0.541710000000     0.307700000000    -0.190302   
N40      N      0.549580000000     0.543000000000     0.173580000000    -0.190249   
N41      N      0.884160000000     0.208450000000     0.974450000000    -0.190397   
N42      N      0.882840000000     0.209700000000     0.840320000000    -0.190391   
N43      N      0.830280000000     0.157150000000     0.340320000000    -0.190333   
N44      N      0.831540000000     0.155840000000     0.474440000000    -0.190355   
N45      N      0.164880000000     0.350730000000     0.641060000000    -0.190399   
N46      N      0.163630000000     0.348160000000     0.506930000000    -0.190252   
N47      N      0.216210000000     0.348130000000     0.006950000000    -0.190324   
N48      N      0.217500000000     0.350700000000     0.141080000000    -0.190327   
N49      N      0.980840000000     0.247760000000     0.215480000000    -0.190199   
N50      N      0.066950000000     0.290810000000     0.265940000000    -0.189319   
N51      N      0.314190000000     0.408050000000     0.382060000000    -0.189474   
N52      N      0.400310000000     0.451100000000     0.432530000000    -0.189504   
N53      N      0.550850000000     0.017450000000     0.807720000000    -0.190295   
N54      N      0.549590000000     0.014870000000     0.673600000000    -0.190325   
N55      N      0.496980000000     0.014890000000     0.173580000000    -0.190309   
N56      N      0.498260000000     0.017470000000     0.307700000000    -0.190324   
N57      N      0.647530000000     0.074820000000     0.048740000000    -0.189434   
N58      N      0.733620000000     0.117860000000     0.099260000000    -0.18944    
N59      N      0.217450000000     0.875080000000     0.641280000000    -0.19033    
N60      N      0.216190000000     0.876400000000     0.507150000000    -0.190385   
N61      N      0.163610000000     0.823790000000     0.007160000000    -0.190309   
N62      N      0.164900000000     0.822510000000     0.141290000000    -0.190353   
N63      N      0.314150000000     0.914430000000     0.882230000000    -0.189465   
N64      N      0.400280000000     0.957510000000     0.932620000000    -0.189464   
N65      N      0.830220000000     0.681390000000     0.840520000000    -0.190312   
N66      N      0.831520000000     0.683970000000     0.974640000000    -0.190398   
N67      N      0.884140000000     0.683980000000     0.474680000000    -0.190406   
N68      N      0.882850000000     0.681400000000     0.340550000000    -0.190275   
N69      N      0.647510000000     0.581000000000     0.548810000000    -0.189434   
N70      N      0.733580000000     0.624040000000     0.599420000000    -0.189467   
N71      N      0.980790000000     0.741350000000     0.715710000000    -0.190198   
N72      N      0.066900000000     0.784430000000     0.766180000000    -0.18933    
O1       O      0.870400000000     0.651200000000     0.574700000000    -0.556637   
O2       O      0.837640000000     0.647230000000     0.750550000000    -0.555171   
O3       O      0.794260000000     0.621360000000     0.637450000000    -0.559141   
O4       O      0.915520000000     0.677900000000     0.688050000000    -0.551802   
O5       O      0.920090000000     0.744010000000     0.677730000000    -0.559239   
O6       O      0.798830000000     0.687470000000     0.627140000000    -0.551869   
O7       O      0.843960000000     0.714180000000     0.740490000000    -0.556654   
O8       O      0.876710000000     0.718140000000     0.564640000000    -0.555349   
O9       O      0.210060000000     0.833510000000     0.731290000000    -0.555106   
O10      O      0.177370000000     0.804760000000     0.907170000000    -0.556784   
O11      O      0.132200000000     0.786290000000     0.793840000000    -0.551728   
O12      O      0.253470000000     0.851060000000     0.844350000000    -0.559148   
O13      O      0.248840000000     0.912570000000     0.854600000000    -0.551845   
O14      O      0.127570000000     0.847800000000     0.804080000000    -0.55921    
O15      O      0.170980000000     0.865350000000     0.917150000000    -0.555228   
O16      O      0.203680000000     0.894110000000     0.741270000000    -0.556791   
O17      O      0.504400000000     0.980720000000     0.083610000000    -0.555138   
O18      O      0.537110000000     0.984670000000     0.907750000000    -0.556706   
O19      O      0.582260000000     0.011380000000     0.021080000000    -0.551686   
O20      O      0.461000000000     0.954850000000     0.970540000000    -0.559267   
O21      O      0.465560000000     0.020960000000     0.960220000000    -0.551651   
O22      O      0.586830000000     0.077490000000     0.010760000000    -0.558996   
O23      O      0.543430000000     0.051620000000     0.897690000000    -0.55519    
O24      O      0.510720000000     0.047670000000     0.073550000000    -0.556635   
O25      O      0.171050000000     0.313980000000     0.416960000000    -0.555185   
O26      O      0.203760000000     0.317920000000     0.241100000000    -0.556549   
O27      O      0.248910000000     0.344620000000     0.354430000000    -0.551683   
O28      O      0.127640000000     0.288120000000     0.303890000000    -0.559171   
O29      O      0.132230000000     0.354240000000     0.293570000000    -0.551631   
O30      O      0.253500000000     0.410740000000     0.344120000000    -0.559179   
O31      O      0.210100000000     0.384880000000     0.231050000000    -0.555174   
O32      O      0.177380000000     0.380940000000     0.406910000000    -0.556547   
O33      O      0.844040000000     0.138120000000     0.240330000000    -0.556685   
O34      O      0.876770000000     0.166880000000     0.064470000000    -0.555238   
O35      O      0.920160000000     0.184410000000     0.177550000000    -0.559248   
O36      O      0.798900000000     0.119690000000     0.126980000000    -0.551903   
O37      O      0.794290000000     0.181210000000     0.137220000000    -0.559117   
O38      O      0.915550000000     0.245930000000     0.187790000000    -0.551851   
O39      O      0.870410000000     0.227500000000     0.074440000000    -0.556505   
O40      O      0.837680000000     0.198730000000     0.250310000000    -0.555194   
O41      O      0.543470000000     0.500130000000     0.397720000000    -0.555292   
O42      O      0.510720000000     0.471360000000     0.573580000000    -0.556694   
O43      O      0.465590000000     0.452930000000     0.460220000000    -0.551813   
O44      O      0.586850000000     0.517650000000     0.510820000000    -0.55917    
O45      O      0.582230000000     0.579170000000     0.521060000000    -0.55179    
O46      O      0.460980000000     0.514450000000     0.470460000000    -0.559328   
O47      O      0.504360000000     0.531970000000     0.583550000000    -0.555275   
O48      O      0.537110000000     0.560740000000     0.407700000000    -0.556762   
O49      O      0.206440000000     0.384900000000     0.731060000000    -0.555273   
O50      O      0.235230000000     0.380920000000     0.906940000000    -0.556708   
O51      O      0.253680000000     0.354240000000     0.793610000000    -0.551894   
O52      O      0.188900000000     0.410740000000     0.844130000000    -0.559423   
O53      O      0.127410000000     0.344630000000     0.854410000000    -0.551942   
O54      O      0.192180000000     0.288130000000     0.803890000000    -0.559503   
O55      O      0.174650000000     0.313970000000     0.916950000000    -0.555339   
O56      O      0.145860000000     0.317950000000     0.741080000000    -0.55676    
O57      O      0.392710000000     0.198710000000     0.750310000000    -0.555248   
O58      O      0.388740000000     0.227500000000     0.574430000000    -0.556709   
O59      O      0.362040000000     0.245940000000     0.687750000000    -0.551922   
O60      O      0.418570000000     0.181190000000     0.637260000000    -0.559386   
O61      O      0.352470000000     0.119680000000     0.626960000000    -0.551848   
O62      O      0.295940000000     0.184430000000     0.677460000000    -0.559408   
O63      O      0.321800000000     0.166910000000     0.564400000000    -0.555211   
O64      O      0.325770000000     0.138110000000     0.740280000000    -0.55671    
O65      O      0.055330000000     0.560740000000     0.907940000000    -0.556893   
O66      O      0.059320000000     0.531940000000     0.083800000000    -0.555331   
O67      O      0.085170000000     0.514420000000     0.970730000000    -0.559432   
O68      O      0.028640000000     0.579160000000     0.021270000000    -0.551496   
O69      O      0.962540000000     0.517660000000     0.010990000000    -0.558979   
O70      O      0.019070000000     0.452910000000     0.960450000000    -0.551466   
O71      O      0.992380000000     0.471340000000     0.073790000000    -0.556943   
O72      O      0.988390000000     0.500140000000     0.897910000000    -0.555517   
O73      O      0.722050000000     0.894120000000     0.241090000000    -0.55676    
O74      O      0.726010000000     0.865340000000     0.416980000000    -0.5553     
O75      O      0.751850000000     0.847790000000     0.303940000000    -0.559471   
O76      O      0.695360000000     0.912580000000     0.354400000000    -0.552131   
O77      O      0.629250000000     0.851090000000     0.344120000000    -0.55951    
O78      O      0.685740000000     0.786300000000     0.293660000000    -0.551996   
O79      O      0.659060000000     0.804760000000     0.406960000000    -0.556846   
O80      O      0.655100000000     0.833530000000     0.231070000000    -0.555324   
O81      O      0.901880000000     0.714180000000     0.240530000000    -0.556682   
O82      O      0.873090000000     0.718140000000     0.064640000000    -0.555145   
O83      O      0.855560000000     0.744010000000     0.177680000000    -0.559268   
O84      O      0.920320000000     0.687470000000     0.127220000000    -0.55199    
O85      O      0.858820000000     0.621370000000     0.137510000000    -0.559451   
O86      O      0.794060000000     0.677900000000     0.187980000000    -0.551881   
O87      O      0.812500000000     0.651190000000     0.074670000000    -0.556632   
O88      O      0.841280000000     0.647230000000     0.250550000000    -0.555272   
O89      O      0.539830000000     0.051630000000     0.397700000000    -0.555225   
O90      O      0.568620000000     0.047650000000     0.573570000000    -0.556695   
O91      O      0.587060000000     0.020950000000     0.460250000000    -0.551857   
O92      O      0.522300000000     0.077480000000     0.510760000000    -0.559288   
O93      O      0.460800000000     0.011370000000     0.521040000000    -0.551804   
O94      O      0.525550000000     0.954850000000     0.470540000000    -0.559513   
O95      O      0.508030000000     0.980700000000     0.583600000000    -0.555252   
O96      O      0.479240000000     0.984680000000     0.407720000000    -0.556727   
O97      O      0.321800000000     0.163220000000     0.064410000000    -0.555282   
O98      O      0.325760000000     0.195970000000     0.240250000000    -0.556677   
O99      O      0.352470000000     0.241100000000     0.126910000000    -0.551976   
O100     O      0.295930000000     0.119840000000     0.177490000000    -0.559279   
O101     O      0.362030000000     0.124400000000     0.187810000000    -0.551868   
O102     O      0.418570000000     0.245660000000     0.137230000000    -0.559404   
O103     O      0.392700000000     0.202280000000     0.250310000000    -0.55537    
O104     O      0.388740000000     0.169540000000     0.074460000000    -0.556717   
O105     O      0.508010000000     0.535610000000     0.083560000000    -0.555094   
O106     O      0.479250000000     0.502900000000     0.907690000000    -0.556788   
O107     O      0.460810000000     0.457750000000     0.021030000000    -0.55181    
O108     O      0.525550000000     0.579010000000     0.970490000000    -0.559473   
O109     O      0.587060000000     0.574390000000     0.960240000000    -0.551772   
O110     O      0.522320000000     0.453120000000     0.010790000000    -0.559056   
O111     O      0.539850000000     0.496530000000     0.897710000000    -0.55519    
O112     O      0.568620000000     0.529240000000     0.073580000000    -0.556485   
O113     O      0.145870000000     0.836290000000     0.241270000000    -0.556697   
O114     O      0.174640000000     0.869030000000     0.417130000000    -0.555243   
O115     O      0.192180000000     0.912410000000     0.304040000000    -0.559264   
O116     O      0.127420000000     0.791150000000     0.354620000000    -0.551729   
O117     O      0.188930000000     0.786520000000     0.344390000000    -0.559304   
O118     O      0.253680000000     0.907770000000     0.293810000000    -0.551981   
O119     O      0.235230000000     0.862640000000     0.407170000000    -0.556815   
O120     O      0.206460000000     0.829900000000     0.231300000000    -0.555238   
O121     O      0.992350000000     0.529310000000     0.573760000000    -0.55699    
O122     O      0.988420000000     0.496610000000     0.397890000000    -0.555588   
O123     O      0.962540000000     0.453200000000     0.510960000000    -0.559089   
O124     O      0.019070000000     0.574470000000     0.460440000000    -0.551492   
O125     O      0.085170000000     0.579040000000     0.470760000000    -0.559414   
O126     O      0.028650000000     0.457770000000     0.521280000000    -0.55137    
O127     O      0.055360000000     0.502920000000     0.407960000000    -0.556822   
O128     O      0.059300000000     0.535630000000     0.583820000000    -0.555353   
O129     O      0.841260000000     0.202290000000     0.750310000000    -0.555368   
O130     O      0.812500000000     0.169590000000     0.574440000000    -0.556782   
O131     O      0.794060000000     0.124430000000     0.687770000000    -0.552014   
O132     O      0.858790000000     0.245700000000     0.637250000000    -0.559346   
O133     O      0.920300000000     0.241080000000     0.627000000000    -0.552068   
O134     O      0.855570000000     0.119820000000     0.677530000000    -0.559512   
O135     O      0.873100000000     0.163220000000     0.564460000000    -0.555429   
O136     O      0.901860000000     0.195930000000     0.740330000000    -0.556936   
O137     O      0.659060000000     0.862610000000     0.906930000000    -0.556765   
O138     O      0.655110000000     0.829890000000     0.731070000000    -0.55533    
O139     O      0.629250000000     0.786490000000     0.844140000000    -0.559351   
O140     O      0.685750000000     0.907760000000     0.793590000000    -0.551862   
O141     O      0.751860000000     0.912340000000     0.803910000000    -0.559332   
O142     O      0.695360000000     0.791070000000     0.854450000000    -0.551912   
O143     O      0.722060000000     0.836220000000     0.741120000000    -0.55668    
O144     O      0.726010000000     0.868940000000     0.916980000000    -0.555243   
V1       V      0.854390000000     0.646860000000     0.663210000000     1.39544    
V2       V      0.859960000000     0.718510000000     0.651980000000     1.39564    
V3       V      0.193340000000     0.816410000000     0.818650000000     1.39572    
V4       V      0.187700000000     0.882460000000     0.829790000000     1.39566    
V5       V      0.521120000000     0.980340000000     0.996270000000     1.39565    
V6       V      0.526700000000     0.052000000000     0.985030000000     1.39542    
V7       V      0.187770000000     0.313600000000     0.329620000000     1.3956     
V8       V      0.193370000000     0.385260000000     0.318390000000     1.39544    
V9       V      0.860030000000     0.149780000000     0.151810000000     1.39578    
V10      V      0.854420000000     0.215840000000     0.162960000000     1.39546    
V11      V      0.526730000000     0.483020000000     0.485060000000     1.39563    
V12      V      0.521100000000     0.549080000000     0.496210000000     1.39602    
V13      V      0.223560000000     0.385270000000     0.818410000000     1.39581    
V14      V      0.157530000000     0.313600000000     0.829600000000     1.39639    
V15      V      0.393080000000     0.215830000000     0.662960000000     1.39598    
V16      V      0.321430000000     0.149790000000     0.651760000000     1.39594    
V17      V      0.059680000000     0.549060000000     0.996450000000     1.39661    
V18      V      0.988030000000     0.483010000000     0.985270000000     1.39441    
V19      V      0.726380000000     0.882460000000     0.329620000000     1.3961     
V20      V      0.654720000000     0.816420000000     0.318430000000     1.39622    
V21      V      0.890210000000     0.718510000000     0.152000000000     1.39547    
V22      V      0.824170000000     0.646860000000     0.163200000000     1.39604    
V23      V      0.556950000000     0.051990000000     0.485050000000     1.39586    
V24      V      0.490910000000     0.980330000000     0.496240000000     1.39608    
V25      V      0.321430000000     0.179970000000     0.151740000000     1.39607    
V26      V      0.393080000000     0.185540000000     0.162980000000     1.39595    
V27      V      0.490910000000     0.518890000000     0.996210000000     1.39587    
V28      V      0.556960000000     0.513250000000     0.985060000000     1.39538    
V29      V      0.157530000000     0.852290000000     0.329790000000     1.39583    
V30      V      0.223570000000     0.846640000000     0.318650000000     1.39594    
V31      V      0.988030000000     0.513330000000     0.485240000000     1.39479    
V32      V      0.059680000000     0.518910000000     0.496480000000     1.3965     
V33      V      0.824150000000     0.185570000000     0.662960000000     1.39609    
V34      V      0.890210000000     0.179940000000     0.651810000000     1.39615    
V35      V      0.654730000000     0.846620000000     0.818410000000     1.39586    
V36      V      0.726390000000     0.852210000000     0.829640000000     1.39572    


