data_structure

_audit_creation_method RASPA-1.0
_audit_creation_date 2023-5-23
_audit_author_name 'Poobodin Mano'

_cell_length_a    42.4507
_cell_length_b    42.4507
_cell_length_c    42.3383
_cell_angle_alpha 90
_cell_angle_beta  90
_cell_angle_gamma 90
_cell_volume      76296.2

_symmetry_cell_setting          triclinic
_symmetry_space_group_name_Hall 'P 1'
_symmetry_space_group_name_H-M  'P 1'
_symmetry_Int_Tables_number     1

_symmetry_equiv_pos_as_xyz 'x,y,z'

loop_
_atom_site_label
_atom_site_type_symbol
_atom_site_fract_x
_atom_site_fract_y
_atom_site_fract_z
_atom_site_charge
C1       C      0.513860000000     0.452970000000     0.139440000000     0.476463   
C2       C      0.511620000000     0.072540000000     0.139470000000     0.475608   
C3       C      0.012740000000     0.012740000000     0.199230000000     0.466437   
C4       C      0.012730000000     0.012770000000     0.079500000000     0.464952   
C5       C      0.513860000000     0.322540000000     0.139430000000     0.4765     
C6       C      0.511620000000     0.202970000000     0.139470000000     0.476459   
C7       C      0.012730000000     0.262730000000     0.079500000000     0.466067   
C8       C      0.012750000000     0.262780000000     0.199220000000     0.467697   
C9       C      0.262870000000     0.452970000000     0.139470000000     0.476839   
C10      C      0.262680000000     0.072560000000     0.139500000000     0.476094   
C11      C      0.262770000000     0.012780000000     0.079500000000     0.475618   
C12      C      0.262780000000     0.012750000000     0.199240000000     0.477001   
C13      C      0.262770000000     0.262750000000     0.079500000000     0.477011   
C14      C      0.262770000000     0.262790000000     0.199230000000     0.478639   
C15      C      0.262870000000     0.202970000000     0.139500000000     0.476525   
C16      C      0.262680000000     0.322560000000     0.139460000000     0.476584   
C17      C      0.512720000000     0.012740000000     0.948720000000     0.47552    
C18      C      0.512720000000     0.012700000000     0.828990000000     0.476865   
C19      C      0.013840000000     0.072510000000     0.888750000000     0.465016   
C20      C      0.011600000000     0.452940000000     0.888780000000     0.465874   
C21      C      0.512720000000     0.262710000000     0.948720000000     0.477123   
C22      C      0.512720000000     0.262740000000     0.829000000000     0.47848    
C23      C      0.011600000000     0.322510000000     0.888780000000     0.465933   
C24      C      0.013840000000     0.202940000000     0.888750000000     0.465854   
C25      C      0.262660000000     0.452940000000     0.888760000000     0.476892   
C26      C      0.262860000000     0.072520000000     0.888720000000     0.475746   
C27      C      0.262760000000     0.012750000000     0.948720000000     0.47563    
C28      C      0.262750000000     0.012710000000     0.828990000000     0.477085   
C29      C      0.262850000000     0.322530000000     0.888750000000     0.47648    
C30      C      0.262670000000     0.202940000000     0.888720000000     0.476625   
C31      C      0.262760000000     0.262720000000     0.948720000000     0.477126   
C32      C      0.262750000000     0.262750000000     0.828990000000     0.478704   
C33      C      0.012760000000     0.512700000000     0.328990000000     0.477123   
C34      C      0.012770000000     0.512670000000     0.448720000000     0.475348   
C35      C      0.072560000000     0.012590000000     0.388740000000     0.46525    
C36      C      0.452980000000     0.012780000000     0.388740000000     0.465786   
C37      C      0.452980000000     0.261720000000     0.388770000000     0.476507   
C38      C      0.072550000000     0.263960000000     0.388770000000     0.475776   
C39      C      0.012770000000     0.262830000000     0.329000000000     0.477367   
C40      C      0.012770000000     0.262840000000     0.448720000000     0.475631   
C41      C      0.262760000000     0.012670000000     0.448720000000     0.466051   
C42      C      0.262780000000     0.012700000000     0.328990000000     0.467788   
C43      C      0.322560000000     0.512590000000     0.388740000000     0.476869   
C44      C      0.202980000000     0.512780000000     0.388730000000     0.476824   
C45      C      0.262760000000     0.262840000000     0.448720000000     0.476991   
C46      C      0.262770000000     0.262830000000     0.328990000000     0.47865    
C47      C      0.202980000000     0.263960000000     0.388760000000     0.476464   
C48      C      0.322550000000     0.261720000000     0.388770000000     0.476515   
C49      C      0.012750000000     0.512660000000     0.579500000000     0.475653   
C50      C      0.012730000000     0.512670000000     0.699230000000     0.477145   
C51      C      0.072530000000     0.012760000000     0.639490000000     0.465182   
C52      C      0.452950000000     0.012570000000     0.639470000000     0.465873   
C53      C      0.512750000000     0.262830000000     0.579500000000     0.477003   
C54      C      0.512730000000     0.262800000000     0.699220000000     0.478428   
C55      C      0.452960000000     0.263940000000     0.639440000000     0.476513   
C56      C      0.072520000000     0.261700000000     0.639460000000     0.475479   
C57      C      0.262740000000     0.012670000000     0.699240000000     0.468026   
C58      C      0.262740000000     0.012660000000     0.579500000000     0.466367   
C59      C      0.322530000000     0.512760000000     0.639480000000     0.476891   
C60      C      0.202950000000     0.512570000000     0.639490000000     0.476823   
C61      C      0.202960000000     0.261700000000     0.639460000000     0.476195   
C62      C      0.322520000000     0.263940000000     0.639450000000     0.476482   
C63      C      0.262750000000     0.262800000000     0.699230000000     0.478284   
C64      C      0.262740000000     0.262830000000     0.579500000000     0.47658    
C65      C      0.404150000000     0.236560000000     0.638190000000     0.0305108  
C66      C      0.404230000000     0.292050000000     0.640720000000     0.030523   
C67      C      0.371250000000     0.292050000000     0.640730000000     0.0305269  
C68      C      0.371330000000     0.236560000000     0.638190000000     0.030498   
C69      C      0.121330000000     0.289080000000     0.638220000000     0.0304082  
C70      C      0.121250000000     0.233580000000     0.640730000000     0.0304191  
C71      C      0.154230000000     0.233580000000     0.640730000000     0.0304822  
C72      C      0.154150000000     0.289080000000     0.638220000000     0.0304564  
C73      C      0.404150000000     0.484850000000     0.639590000000     0.0304888  
C74      C      0.404220000000     0.040400000000     0.639490000000     0.0291654  
C75      C      0.371330000000     0.040490000000     0.639600000000     0.0289969  
C76      C      0.371250000000     0.484940000000     0.639490000000     0.0306506  
C77      C      0.121260000000     0.484930000000     0.639510000000     0.0305158  
C78      C      0.121330000000     0.040480000000     0.639610000000     0.0289276  
C79      C      0.154220000000     0.040390000000     0.639500000000     0.0292353  
C80      C      0.154150000000     0.484840000000     0.639620000000     0.0304045  
C81      C      0.262720000000     0.290620000000     0.497620000000     0.0308154  
C82      C      0.262780000000     0.235070000000     0.497610000000     0.0309382  
C83      C      0.262720000000     0.235060000000     0.530600000000     0.0306829  
C84      C      0.262780000000     0.290620000000     0.530600000000     0.0307668  
C85      C      0.262710000000     0.040440000000     0.497620000000     0.0294144  
C86      C      0.262790000000     0.484890000000     0.497620000000     0.0307376  
C87      C      0.262710000000     0.484890000000     0.530600000000     0.0308535  
C88      C      0.262790000000     0.040440000000     0.530600000000     0.0293385  
C89      C      0.512790000000     0.290620000000     0.497620000000     0.030856   
C90      C      0.012730000000     0.235070000000     0.497610000000     0.0300581  
C91      C      0.012790000000     0.235060000000     0.530600000000     0.0299578  
C92      C      0.512730000000     0.290620000000     0.530600000000     0.0307536  
C93      C      0.404180000000     0.289100000000     0.390010000000     0.0305484  
C94      C      0.404260000000     0.233600000000     0.387500000000     0.03048    
C95      C      0.371280000000     0.233600000000     0.387500000000     0.0304581  
C96      C      0.371360000000     0.289100000000     0.390010000000     0.0305105  
C97      C      0.121280000000     0.292070000000     0.387490000000     0.030456   
C98      C      0.121360000000     0.236580000000     0.390020000000     0.0304797  
C99      C      0.154180000000     0.236580000000     0.390010000000     0.0304326  
C100     C      0.154260000000     0.292080000000     0.387490000000     0.0304977  
C101     C      0.512720000000     0.040440000000     0.497620000000     0.0294     
C102     C      0.012800000000     0.484890000000     0.497620000000     0.029957   
C103     C      0.012720000000     0.484890000000     0.530600000000     0.0300702  
C104     C      0.512800000000     0.040440000000     0.530600000000     0.0293058  
C105     C      0.404250000000     0.484950000000     0.388720000000     0.0305728  
C106     C      0.404180000000     0.040500000000     0.388630000000     0.0290438  
C107     C      0.371290000000     0.040410000000     0.388740000000     0.0292363  
C108     C      0.371360000000     0.484860000000     0.388610000000     0.030426   
C109     C      0.121360000000     0.484870000000     0.388610000000     0.0303834  
C110     C      0.121280000000     0.040420000000     0.388720000000     0.0291425  
C111     C      0.154180000000     0.040510000000     0.388610000000     0.0289731  
C112     C      0.154250000000     0.484960000000     0.388710000000     0.0306295  
C113     C      0.283210000000     0.243890000000     0.780570000000     0.0325277  
C114     C      0.242290000000     0.281660000000     0.780590000000     0.0324321  
C115     C      0.243470000000     0.282870000000     0.747640000000     0.0325073  
C116     C      0.282030000000     0.242700000000     0.747620000000     0.032475   
C117     C      0.242470000000     0.031770000000     0.780580000000     0.0313089  
C118     C      0.283020000000     0.493620000000     0.780590000000     0.0325463  
C119     C      0.281820000000     0.492400000000     0.747640000000     0.0323714  
C120     C      0.243660000000     0.032960000000     0.747630000000     0.0307856  
C121     C      0.290580000000     0.371320000000     0.888640000000     0.0304035  
C122     C      0.235020000000     0.371250000000     0.888740000000     0.0305774  
C123     C      0.234930000000     0.404140000000     0.888640000000     0.030422   
C124     C      0.290480000000     0.404220000000     0.888750000000     0.0307449  
C125     C      0.235030000000     0.121250000000     0.888700000000     0.0305507  
C126     C      0.290590000000     0.121320000000     0.888580000000     0.030239   
C127     C      0.290490000000     0.154210000000     0.888690000000     0.0306198  
C128     C      0.234940000000     0.154140000000     0.888600000000     0.0304721  
C129     C      0.492450000000     0.243680000000     0.780570000000     0.0324244  
C130     C      0.032990000000     0.281850000000     0.780590000000     0.0308376  
C131     C      0.031810000000     0.283050000000     0.747640000000     0.0313278  
C132     C      0.493630000000     0.242510000000     0.747620000000     0.0324365  
C133     C      0.492630000000     0.031960000000     0.780580000000     0.0313175  
C134     C      0.032800000000     0.493410000000     0.780590000000     0.0308329  
C135     C      0.031600000000     0.492220000000     0.747650000000     0.0313732  
C136     C      0.493830000000     0.033130000000     0.747630000000     0.0308104  
C137     C      0.038980000000     0.404130000000     0.890040000000     0.0290659  
C138     C      0.483480000000     0.404210000000     0.887520000000     0.0304966  
C139     C      0.483480000000     0.371230000000     0.887520000000     0.030526   
C140     C      0.038980000000     0.371320000000     0.890040000000     0.0290689  
C141     C      0.041950000000     0.121230000000     0.887470000000     0.0289686  
C142     C      0.486460000000     0.121310000000     0.889990000000     0.0305093  
C143     C      0.486450000000     0.154130000000     0.889990000000     0.0303727  
C144     C      0.041950000000     0.154210000000     0.887470000000     0.0290068  
C145     C      0.283230000000     0.281690000000     0.247630000000     0.0325136  
C146     C      0.242310000000     0.243920000000     0.247640000000     0.0325096  
C147     C      0.243490000000     0.242730000000     0.280590000000     0.0324115  
C148     C      0.282050000000     0.282910000000     0.280580000000     0.03248    
C149     C      0.234990000000     0.262770000000     0.030600000000     0.0307576  
C150     C      0.290550000000     0.262690000000     0.030600000000     0.0307373  
C151     C      0.290540000000     0.262760000000     0.997610000000     0.0309345  
C152     C      0.234990000000     0.262680000000     0.997620000000     0.030786   
C153     C      0.242500000000     0.493650000000     0.247630000000     0.0324726  
C154     C      0.283060000000     0.031810000000     0.247640000000     0.0312484  
C155     C      0.281860000000     0.032990000000     0.280590000000     0.0308057  
C156     C      0.243700000000     0.492440000000     0.280580000000     0.0324408  
C157     C      0.234990000000     0.012820000000     0.030610000000     0.0300002  
C158     C      0.290550000000     0.512730000000     0.030600000000     0.0307077  
C159     C      0.290540000000     0.512810000000     0.997610000000     0.0308961  
C160     C      0.234990000000     0.012730000000     0.997620000000     0.0299957  
C161     C      0.235050000000     0.404250000000     0.139470000000     0.0306634  
C162     C      0.290600000000     0.404180000000     0.139590000000     0.0304472  
C163     C      0.290510000000     0.371280000000     0.139480000000     0.0305872  
C164     C      0.234960000000     0.371350000000     0.139570000000     0.0305039  
C165     C      0.290590000000     0.154180000000     0.139620000000     0.0304878  
C166     C      0.235040000000     0.154250000000     0.139530000000     0.0305812  
C167     C      0.234950000000     0.121350000000     0.139630000000     0.0303811  
C168     C      0.290500000000     0.121280000000     0.139520000000     0.0306012  
C169     C      0.492490000000     0.281880000000     0.247630000000     0.0325492  
C170     C      0.033030000000     0.243720000000     0.247640000000     0.0307739  
C171     C      0.031850000000     0.242550000000     0.280590000000     0.0314149  
C172     C      0.493680000000     0.283090000000     0.280580000000     0.0323848  
C173     C      0.484940000000     0.262740000000     0.997620000000     0.0307895  
C174     C      0.040500000000     0.262680000000     0.997610000000     0.0293698  
C175     C      0.040500000000     0.262750000000     0.030600000000     0.0293451  
C176     C      0.484940000000     0.262690000000     0.030600000000     0.0307525  
C177     C      0.492660000000     0.493450000000     0.247630000000     0.0324808  
C178     C      0.032840000000     0.032000000000     0.247640000000     0.0296601  
C179     C      0.031640000000     0.033170000000     0.280590000000     0.0297561  
C180     C      0.493870000000     0.492250000000     0.280580000000     0.032419   
C181     C      0.484950000000     0.512790000000     0.030610000000     0.030871   
C182     C      0.040500000000     0.012730000000     0.030600000000     0.0286366  
C183     C      0.040500000000     0.012790000000     0.997610000000     0.0285858  
C184     C      0.484940000000     0.512730000000     0.997620000000     0.0306687  
C185     C      0.486480000000     0.404160000000     0.138190000000     0.0304967  
C186     C      0.041970000000     0.404240000000     0.140700000000     0.029023   
C187     C      0.041970000000     0.371270000000     0.140700000000     0.0290317  
C188     C      0.486480000000     0.371350000000     0.138180000000     0.0304927  
C189     C      0.483500000000     0.154240000000     0.140750000000     0.0305026  
C190     C      0.039000000000     0.154160000000     0.138230000000     0.0290589  
C191     C      0.039000000000     0.121350000000     0.138230000000     0.0290014  
C192     C      0.483500000000     0.121270000000     0.140750000000     0.0304236  
C193     C      0.513860000000     0.952970000000     0.139440000000     0.475432   
C194     C      0.511620000000     0.572540000000     0.139470000000     0.476479   
C195     C      0.012740000000     0.512740000000     0.199230000000     0.467919   
C196     C      0.012730000000     0.512760000000     0.079500000000     0.466337   
C197     C      0.513860000000     0.822540000000     0.139430000000     0.476622   
C198     C      0.511620000000     0.702970000000     0.139470000000     0.476442   
C199     C      0.012730000000     0.762730000000     0.079500000000     0.466067   
C200     C      0.012750000000     0.762780000000     0.199220000000     0.467754   
C201     C      0.262870000000     0.952970000000     0.139470000000     0.475749   
C202     C      0.262680000000     0.572560000000     0.139500000000     0.476822   
C203     C      0.262770000000     0.512780000000     0.079500000000     0.477024   
C204     C      0.262780000000     0.512750000000     0.199240000000     0.478507   
C205     C      0.262770000000     0.762740000000     0.079500000000     0.4772     
C206     C      0.262770000000     0.762790000000     0.199230000000     0.478655   
C207     C      0.262870000000     0.702970000000     0.139500000000     0.476504   
C208     C      0.262680000000     0.822560000000     0.139460000000     0.476665   
C209     C      0.512720000000     0.512740000000     0.948720000000     0.476927   
C210     C      0.512720000000     0.512700000000     0.828990000000     0.478368   
C211     C      0.013840000000     0.572500000000     0.888750000000     0.465801   
C212     C      0.011600000000     0.952940000000     0.888780000000     0.464822   
C213     C      0.512720000000     0.762710000000     0.948720000000     0.477182   
C214     C      0.512720000000     0.762740000000     0.829000000000     0.478492   
C215     C      0.011600000000     0.822510000000     0.888780000000     0.466028   
C216     C      0.013840000000     0.702940000000     0.888750000000     0.465833   
C217     C      0.262660000000     0.952940000000     0.888760000000     0.475797   
C218     C      0.262860000000     0.572520000000     0.888720000000     0.476472   
C219     C      0.262760000000     0.512750000000     0.948720000000     0.477037   
C220     C      0.262750000000     0.512710000000     0.828990000000     0.478597   
C221     C      0.262850000000     0.822520000000     0.888750000000     0.476654   
C222     C      0.262670000000     0.702940000000     0.888720000000     0.476643   
C223     C      0.262760000000     0.762720000000     0.948720000000     0.47717    
C224     C      0.262750000000     0.762750000000     0.828990000000     0.47868    
C225     C      0.012760000000     0.012700000000     0.328990000000     0.466399   
C226     C      0.012770000000     0.012670000000     0.448720000000     0.465016   
C227     C      0.072560000000     0.512600000000     0.388740000000     0.475848   
C228     C      0.452980000000     0.512780000000     0.388740000000     0.476518   
C229     C      0.452980000000     0.761720000000     0.388770000000     0.476475   
C230     C      0.072550000000     0.763960000000     0.388770000000     0.475741   
C231     C      0.012770000000     0.762830000000     0.329000000000     0.476978   
C232     C      0.012770000000     0.762850000000     0.448720000000     0.475637   
C233     C      0.262760000000     0.512670000000     0.448720000000     0.47673    
C234     C      0.262780000000     0.512700000000     0.328990000000     0.478555   
C235     C      0.322560000000     0.012590000000     0.388740000000     0.46624    
C236     C      0.202980000000     0.012780000000     0.388730000000     0.465773   
C237     C      0.262760000000     0.762850000000     0.448720000000     0.476952   
C238     C      0.262770000000     0.762830000000     0.328990000000     0.478305   
C239     C      0.202980000000     0.763960000000     0.388760000000     0.47644    
C240     C      0.322550000000     0.761720000000     0.388770000000     0.476481   
C241     C      0.012750000000     0.012660000000     0.579500000000     0.465006   
C242     C      0.012730000000     0.012670000000     0.699230000000     0.466416   
C243     C      0.072530000000     0.512760000000     0.639490000000     0.475891   
C244     C      0.452950000000     0.512570000000     0.639470000000     0.476548   
C245     C      0.512750000000     0.762830000000     0.579500000000     0.476984   
C246     C      0.512730000000     0.762800000000     0.699220000000     0.478418   
C247     C      0.452960000000     0.763940000000     0.639440000000     0.476493   
C248     C      0.072520000000     0.761700000000     0.639460000000     0.475767   
C249     C      0.262740000000     0.512670000000     0.699230000000     0.478881   
C250     C      0.262740000000     0.512660000000     0.579500000000     0.477052   
C251     C      0.322530000000     0.012760000000     0.639480000000     0.466205   
C252     C      0.202950000000     0.012570000000     0.639490000000     0.466195   
C253     C      0.202960000000     0.761700000000     0.639460000000     0.476172   
C254     C      0.322520000000     0.763940000000     0.639450000000     0.476462   
C255     C      0.262750000000     0.762800000000     0.699230000000     0.478267   
C256     C      0.262740000000     0.762830000000     0.579500000000     0.476877   
C257     C      0.404150000000     0.736560000000     0.638190000000     0.0304947  
C258     C      0.404230000000     0.792050000000     0.640720000000     0.0305361  
C259     C      0.371250000000     0.792050000000     0.640730000000     0.0305411  
C260     C      0.371330000000     0.736560000000     0.638190000000     0.0304815  
C261     C      0.121330000000     0.789080000000     0.638220000000     0.0305119  
C262     C      0.121250000000     0.733580000000     0.640730000000     0.0303341  
C263     C      0.154230000000     0.733580000000     0.640730000000     0.0304898  
C264     C      0.154150000000     0.789080000000     0.638220000000     0.0304235  
C265     C      0.404150000000     0.984850000000     0.639590000000     0.0369285  
C266     C      0.404220000000     0.540400000000     0.639490000000     0.0305634  
C267     C      0.371330000000     0.540490000000     0.639600000000     0.0304184  
C268     C      0.371250000000     0.984940000000     0.639490000000     0.0370702  
C269     C      0.121260000000     0.984930000000     0.639510000000     0.0368801  
C270     C      0.121330000000     0.540480000000     0.639610000000     0.0303681  
C271     C      0.154220000000     0.540390000000     0.639500000000     0.0305963  
C272     C      0.154150000000     0.984840000000     0.639620000000     0.0368859  
C273     C      0.262720000000     0.790620000000     0.497620000000     0.0308546  
C274     C      0.262780000000     0.735070000000     0.497610000000     0.0307658  
C275     C      0.262720000000     0.735070000000     0.530600000000     0.0308447  
C276     C      0.262780000000     0.790620000000     0.530600000000     0.0307875  
C277     C      0.262710000000     0.540440000000     0.497620000000     0.0308285  
C278     C      0.262790000000     0.984890000000     0.497620000000     0.0371458  
C279     C      0.262710000000     0.984890000000     0.530600000000     0.0372666  
C280     C      0.262790000000     0.540440000000     0.530600000000     0.0307544  
C281     C      0.512790000000     0.790620000000     0.497620000000     0.0308344  
C282     C      0.012730000000     0.735070000000     0.497620000000     0.0299545  
C283     C      0.012790000000     0.735070000000     0.530600000000     0.0300472  
C284     C      0.512730000000     0.790620000000     0.530600000000     0.0307663  
C285     C      0.404180000000     0.789100000000     0.390010000000     0.0305569  
C286     C      0.404260000000     0.733600000000     0.387500000000     0.0304621  
C287     C      0.371280000000     0.733600000000     0.387500000000     0.0304407  
C288     C      0.371360000000     0.789100000000     0.390010000000     0.030518   
C289     C      0.121280000000     0.792070000000     0.387490000000     0.0304439  
C290     C      0.121360000000     0.736580000000     0.390020000000     0.030421   
C291     C      0.154180000000     0.736580000000     0.390010000000     0.0305064  
C292     C      0.154260000000     0.792070000000     0.387490000000     0.0305404  
C293     C      0.512720000000     0.540440000000     0.497620000000     0.0308048  
C294     C      0.012800000000     0.984890000000     0.497620000000     0.0363436  
C295     C      0.012720000000     0.984890000000     0.530600000000     0.0364757  
C296     C      0.512800000000     0.540440000000     0.530600000000     0.0307256  
C297     C      0.404250000000     0.984950000000     0.388720000000     0.0369495  
C298     C      0.404180000000     0.540500000000     0.388630000000     0.0304693  
C299     C      0.371290000000     0.540410000000     0.388740000000     0.0306308  
C300     C      0.371360000000     0.984860000000     0.388610000000     0.0368654  
C301     C      0.121360000000     0.984870000000     0.388610000000     0.036832   
C302     C      0.121280000000     0.540420000000     0.388720000000     0.0304946  
C303     C      0.154180000000     0.540510000000     0.388610000000     0.0304084  
C304     C      0.154250000000     0.984960000000     0.388710000000     0.0369803  
C305     C      0.283210000000     0.743890000000     0.780570000000     0.0325393  
C306     C      0.242290000000     0.781660000000     0.780590000000     0.0324578  
C307     C      0.243470000000     0.782870000000     0.747640000000     0.0325453  
C308     C      0.282030000000     0.742700000000     0.747620000000     0.0324767  
C309     C      0.242470000000     0.531770000000     0.780580000000     0.0324525  
C310     C      0.283020000000     0.993610000000     0.780590000000     0.0398647  
C311     C      0.281820000000     0.992400000000     0.747640000000     0.0387205  
C312     C      0.243660000000     0.532960000000     0.747630000000     0.032427   
C313     C      0.290580000000     0.871320000000     0.888640000000     0.0308338  
C314     C      0.235020000000     0.871250000000     0.888740000000     0.0309627  
C315     C      0.234930000000     0.904140000000     0.888640000000     0.0309308  
C316     C      0.290490000000     0.904210000000     0.888750000000     0.0310909  
C317     C      0.235030000000     0.621250000000     0.888700000000     0.0305829  
C318     C      0.290590000000     0.621320000000     0.888580000000     0.0302762  
C319     C      0.290490000000     0.654220000000     0.888690000000     0.030643   
C320     C      0.234940000000     0.654140000000     0.888600000000     0.0304528  
C321     C      0.492450000000     0.743680000000     0.780570000000     0.0323954  
C322     C      0.032990000000     0.781850000000     0.780590000000     0.0308704  
C323     C      0.031810000000     0.783050000000     0.747650000000     0.0313356  
C324     C      0.493630000000     0.742520000000     0.747620000000     0.0325174  
C325     C      0.492630000000     0.531960000000     0.780580000000     0.0324498  
C326     C      0.032800000000     0.993410000000     0.780590000000     0.0381578  
C327     C      0.031600000000     0.992220000000     0.747650000000     0.0376788  
C328     C      0.493830000000     0.533130000000     0.747630000000     0.032473   
C329     C      0.038980000000     0.904130000000     0.890040000000     0.0295535  
C330     C      0.483480000000     0.904210000000     0.887520000000     0.0310102  
C331     C      0.483480000000     0.871230000000     0.887520000000     0.0309178  
C332     C      0.038980000000     0.871320000000     0.890040000000     0.0294508  
C333     C      0.041950000000     0.621230000000     0.887470000000     0.0289958  
C334     C      0.486460000000     0.621310000000     0.889990000000     0.0305278  
C335     C      0.486450000000     0.654130000000     0.889990000000     0.030353   
C336     C      0.041950000000     0.654210000000     0.887470000000     0.0289932  
C337     C      0.283230000000     0.781690000000     0.247630000000     0.0325773  
C338     C      0.242310000000     0.743920000000     0.247640000000     0.0325043  
C339     C      0.243490000000     0.742730000000     0.280590000000     0.0324604  
C340     C      0.282050000000     0.782910000000     0.280580000000     0.0324409  
C341     C      0.234990000000     0.762770000000     0.030600000000     0.0308499  
C342     C      0.290550000000     0.762690000000     0.030600000000     0.0308273  
C343     C      0.290540000000     0.762760000000     0.997610000000     0.0310267  
C344     C      0.234990000000     0.762680000000     0.997620000000     0.0308762  
C345     C      0.242500000000     0.993650000000     0.247630000000     0.0398674  
C346     C      0.283060000000     0.531810000000     0.247640000000     0.032383   
C347     C      0.281860000000     0.532990000000     0.280590000000     0.0324686  
C348     C      0.243700000000     0.992440000000     0.280580000000     0.0387501  
C349     C      0.234990000000     0.512810000000     0.030610000000     0.0307527  
C350     C      0.290550000000     0.012740000000     0.030600000000     0.0299525  
C351     C      0.290540000000     0.012810000000     0.997610000000     0.0301425  
C352     C      0.234990000000     0.512730000000     0.997620000000     0.0307509  
C353     C      0.235050000000     0.904250000000     0.139470000000     0.0311506  
C354     C      0.290600000000     0.904180000000     0.139590000000     0.0309589  
C355     C      0.290510000000     0.871280000000     0.139480000000     0.0309816  
C356     C      0.234960000000     0.871350000000     0.139570000000     0.0308856  
C357     C      0.290590000000     0.654180000000     0.139620000000     0.0304629  
C358     C      0.235040000000     0.654250000000     0.139530000000     0.0305606  
C359     C      0.234950000000     0.621350000000     0.139630000000     0.0304281  
C360     C      0.290500000000     0.621280000000     0.139520000000     0.0306362  
C361     C      0.492490000000     0.781890000000     0.247630000000     0.0325133  
C362     C      0.033030000000     0.743720000000     0.247640000000     0.0308018  
C363     C      0.031850000000     0.742550000000     0.280590000000     0.0314021  
C364     C      0.493680000000     0.783090000000     0.280580000000     0.0324464  
C365     C      0.484940000000     0.762740000000     0.997620000000     0.0308826  
C366     C      0.040500000000     0.762680000000     0.997610000000     0.0294652  
C367     C      0.040500000000     0.762740000000     0.030600000000     0.0294286  
C368     C      0.484940000000     0.762690000000     0.030600000000     0.0308433  
C369     C      0.492660000000     0.993450000000     0.247630000000     0.0398783  
C370     C      0.032840000000     0.532000000000     0.247640000000     0.0307717  
C371     C      0.031640000000     0.533170000000     0.280590000000     0.0314144  
C372     C      0.493870000000     0.992250000000     0.280580000000     0.038725   
C373     C      0.484950000000     0.012790000000     0.030610000000     0.030114   
C374     C      0.040500000000     0.512730000000     0.030600000000     0.0293885  
C375     C      0.040500000000     0.512790000000     0.997610000000     0.0293338  
C376     C      0.484940000000     0.012730000000     0.997620000000     0.0299139  
C377     C      0.486480000000     0.904160000000     0.138190000000     0.030981   
C378     C      0.041970000000     0.904240000000     0.140700000000     0.0295458  
C379     C      0.041970000000     0.871270000000     0.140700000000     0.0294233  
C380     C      0.486480000000     0.871350000000     0.138180000000     0.0308787  
C381     C      0.483500000000     0.654240000000     0.140750000000     0.0304764  
C382     C      0.039000000000     0.654160000000     0.138230000000     0.029031   
C383     C      0.039000000000     0.621350000000     0.138230000000     0.0290342  
C384     C      0.483500000000     0.621260000000     0.140750000000     0.030505   
C385     C      0.013860000000     0.452970000000     0.139440000000     0.465748   
C386     C      0.011620000000     0.072540000000     0.139470000000     0.465031   
C387     C      0.512740000000     0.012740000000     0.199230000000     0.477186   
C388     C      0.512730000000     0.012770000000     0.079500000000     0.47526    
C389     C      0.013860000000     0.322540000000     0.139430000000     0.465782   
C390     C      0.011620000000     0.202970000000     0.139470000000     0.465856   
C391     C      0.512730000000     0.262730000000     0.079500000000     0.476712   
C392     C      0.512750000000     0.262780000000     0.199220000000     0.478445   
C393     C      0.762870000000     0.452970000000     0.139470000000     0.476497   
C394     C      0.762680000000     0.072560000000     0.139500000000     0.476064   
C395     C      0.762770000000     0.012780000000     0.079500000000     0.475579   
C396     C      0.762780000000     0.012750000000     0.199240000000     0.47697    
C397     C      0.762770000000     0.262750000000     0.079500000000     0.476979   
C398     C      0.762780000000     0.262790000000     0.199230000000     0.47862    
C399     C      0.762860000000     0.202970000000     0.139500000000     0.476503   
C400     C      0.762680000000     0.322560000000     0.139460000000     0.476558   
C401     C      0.012720000000     0.012740000000     0.948720000000     0.464899   
C402     C      0.012720000000     0.012700000000     0.828990000000     0.46615    
C403     C      0.513840000000     0.072510000000     0.888750000000     0.475709   
C404     C      0.511600000000     0.452940000000     0.888780000000     0.476484   
C405     C      0.012720000000     0.262710000000     0.948720000000     0.466472   
C406     C      0.012720000000     0.262740000000     0.829000000000     0.46805    
C407     C      0.511600000000     0.322510000000     0.888780000000     0.476533   
C408     C      0.513840000000     0.202940000000     0.888750000000     0.476551   
C409     C      0.762660000000     0.452940000000     0.888760000000     0.476865   
C410     C      0.762860000000     0.072520000000     0.888720000000     0.47572    
C411     C      0.762760000000     0.012750000000     0.948720000000     0.475599   
C412     C      0.762750000000     0.012710000000     0.828990000000     0.477057   
C413     C      0.762850000000     0.322530000000     0.888750000000     0.476461   
C414     C      0.762670000000     0.202940000000     0.888720000000     0.476914   
C415     C      0.762760000000     0.262720000000     0.948720000000     0.477102   
C416     C      0.762750000000     0.262750000000     0.828990000000     0.478691   
C417     C      0.512760000000     0.512700000000     0.328990000000     0.478637   
C418     C      0.512770000000     0.512670000000     0.448720000000     0.476758   
C419     C      0.572560000000     0.012590000000     0.388740000000     0.465998   
C420     C      0.952970000000     0.012780000000     0.388740000000     0.464694   
C421     C      0.952980000000     0.261720000000     0.388770000000     0.475375   
C422     C      0.572550000000     0.263960000000     0.388770000000     0.476493   
C423     C      0.512770000000     0.262830000000     0.329000000000     0.478859   
C424     C      0.512770000000     0.262840000000     0.448720000000     0.477028   
C425     C      0.762760000000     0.012670000000     0.448720000000     0.466103   
C426     C      0.762780000000     0.012700000000     0.328990000000     0.46782    
C427     C      0.822560000000     0.512590000000     0.388740000000     0.477002   
C428     C      0.702980000000     0.512780000000     0.388730000000     0.476791   
C429     C      0.762760000000     0.262840000000     0.448720000000     0.477037   
C430     C      0.762770000000     0.262830000000     0.328990000000     0.478658   
C431     C      0.702990000000     0.263960000000     0.388760000000     0.476522   
C432     C      0.822550000000     0.261720000000     0.388770000000     0.476645   
C433     C      0.512750000000     0.512660000000     0.579500000000     0.477064   
C434     C      0.512730000000     0.512670000000     0.699230000000     0.478648   
C435     C      0.572530000000     0.012760000000     0.639490000000     0.465756   
C436     C      0.952950000000     0.012570000000     0.639470000000     0.464822   
C437     C      0.012750000000     0.262830000000     0.579500000000     0.475593   
C438     C      0.012730000000     0.262800000000     0.699220000000     0.476926   
C439     C      0.952960000000     0.263940000000     0.639440000000     0.475427   
C440     C      0.572520000000     0.261700000000     0.639460000000     0.476207   
C441     C      0.762740000000     0.012670000000     0.699240000000     0.468045   
C442     C      0.762740000000     0.012660000000     0.579500000000     0.46643    
C443     C      0.822530000000     0.512760000000     0.639480000000     0.477021   
C444     C      0.702950000000     0.512570000000     0.639490000000     0.476793   
C445     C      0.702960000000     0.261700000000     0.639460000000     0.476162   
C446     C      0.822520000000     0.263940000000     0.639450000000     0.476615   
C447     C      0.762740000000     0.262800000000     0.699230000000     0.478289   
C448     C      0.762740000000     0.262830000000     0.579500000000     0.476628   
C449     C      0.904150000000     0.236560000000     0.638190000000     0.0309924  
C450     C      0.904230000000     0.292050000000     0.640720000000     0.0310443  
C451     C      0.871250000000     0.292050000000     0.640730000000     0.03093    
C452     C      0.871330000000     0.236560000000     0.638190000000     0.0308817  
C453     C      0.621330000000     0.289080000000     0.638220000000     0.0304411  
C454     C      0.621250000000     0.233580000000     0.640730000000     0.0304731  
C455     C      0.654230000000     0.233580000000     0.640730000000     0.0304685  
C456     C      0.654150000000     0.289080000000     0.638220000000     0.0304262  
C457     C      0.904150000000     0.484850000000     0.639590000000     0.031011   
C458     C      0.904220000000     0.040400000000     0.639490000000     0.0296259  
C459     C      0.871330000000     0.040490000000     0.639600000000     0.0293836  
C460     C      0.871260000000     0.484940000000     0.639490000000     0.0310172  
C461     C      0.621260000000     0.484930000000     0.639510000000     0.0305183  
C462     C      0.621330000000     0.040480000000     0.639610000000     0.0289836  
C463     C      0.654220000000     0.040390000000     0.639500000000     0.0292197  
C464     C      0.654150000000     0.484840000000     0.639620000000     0.0303912  
C465     C      0.762720000000     0.290620000000     0.497620000000     0.0309096  
C466     C      0.762780000000     0.235070000000     0.497610000000     0.0310334  
C467     C      0.762720000000     0.235060000000     0.530600000000     0.0307774  
C468     C      0.762780000000     0.290620000000     0.530600000000     0.0308625  
C469     C      0.762710000000     0.040440000000     0.497620000000     0.0295079  
C470     C      0.762790000000     0.484890000000     0.497620000000     0.0308331  
C471     C      0.762700000000     0.484890000000     0.530600000000     0.0309477  
C472     C      0.762780000000     0.040440000000     0.530600000000     0.0294356  
C473     C      0.012790000000     0.290620000000     0.497620000000     0.0300981  
C474     C      0.512730000000     0.235070000000     0.497610000000     0.0308176  
C475     C      0.512790000000     0.235060000000     0.530600000000     0.030716   
C476     C      0.012730000000     0.290620000000     0.530600000000     0.029994   
C477     C      0.904170000000     0.289100000000     0.390010000000     0.0309855  
C478     C      0.904260000000     0.233600000000     0.387500000000     0.0309977  
C479     C      0.871280000000     0.233600000000     0.387500000000     0.0308626  
C480     C      0.871360000000     0.289100000000     0.390010000000     0.0309034  
C481     C      0.621280000000     0.292070000000     0.387490000000     0.0305148  
C482     C      0.621360000000     0.236580000000     0.390020000000     0.0305182  
C483     C      0.654180000000     0.236580000000     0.390010000000     0.0303867  
C484     C      0.654260000000     0.292080000000     0.387490000000     0.0304683  
C485     C      0.012720000000     0.040440000000     0.497620000000     0.0286453  
C486     C      0.512800000000     0.484890000000     0.497620000000     0.0307164  
C487     C      0.512720000000     0.484890000000     0.530600000000     0.0308301  
C488     C      0.012800000000     0.040440000000     0.530600000000     0.0285542  
C489     C      0.904250000000     0.484950000000     0.388720000000     0.0310711  
C490     C      0.904180000000     0.040500000000     0.388630000000     0.0295794  
C491     C      0.871280000000     0.040410000000     0.388740000000     0.0296686  
C492     C      0.871360000000     0.484860000000     0.388610000000     0.0308061  
C493     C      0.621360000000     0.484870000000     0.388610000000     0.030438   
C494     C      0.621280000000     0.040420000000     0.388720000000     0.0291795  
C495     C      0.654180000000     0.040510000000     0.388610000000     0.0289399  
C496     C      0.654250000000     0.484960000000     0.388710000000     0.0306121  
C497     C      0.783210000000     0.243890000000     0.780570000000     0.0325665  
C498     C      0.742290000000     0.281660000000     0.780590000000     0.0324444  
C499     C      0.743470000000     0.282870000000     0.747640000000     0.0325104  
C500     C      0.782030000000     0.242700000000     0.747620000000     0.0325235  
C501     C      0.742460000000     0.031770000000     0.780580000000     0.0312282  
C502     C      0.783020000000     0.493620000000     0.780590000000     0.0325775  
C503     C      0.781820000000     0.492400000000     0.747640000000     0.032407   
C504     C      0.743660000000     0.032960000000     0.747630000000     0.0308379  
C505     C      0.790580000000     0.371320000000     0.888640000000     0.0304213  
C506     C      0.735020000000     0.371250000000     0.888740000000     0.0305597  
C507     C      0.734930000000     0.404140000000     0.888640000000     0.0304027  
C508     C      0.790480000000     0.404220000000     0.888750000000     0.0307599  
C509     C      0.735030000000     0.121250000000     0.888700000000     0.0304454  
C510     C      0.790590000000     0.121320000000     0.888580000000     0.030323   
C511     C      0.790490000000     0.154210000000     0.888690000000     0.0306032  
C512     C      0.734940000000     0.154140000000     0.888600000000     0.030507   
C513     C      0.992450000000     0.243680000000     0.780570000000     0.038669   
C514     C      0.532990000000     0.281850000000     0.780590000000     0.0324772  
C515     C      0.531810000000     0.283050000000     0.747640000000     0.032442   
C516     C      0.993640000000     0.242510000000     0.747620000000     0.0398981  
C517     C      0.992630000000     0.031960000000     0.780580000000     0.0376443  
C518     C      0.532800000000     0.493410000000     0.780590000000     0.0324831  
C519     C      0.531600000000     0.492220000000     0.747650000000     0.0324882  
C520     C      0.993830000000     0.033130000000     0.747630000000     0.0381635  
C521     C      0.538980000000     0.404130000000     0.890040000000     0.0304076  
C522     C      0.983480000000     0.404210000000     0.887520000000     0.0369719  
C523     C      0.983480000000     0.371230000000     0.887520000000     0.0369973  
C524     C      0.538980000000     0.371320000000     0.890040000000     0.0304542  
C525     C      0.541950000000     0.121230000000     0.887470000000     0.0304441  
C526     C      0.986460000000     0.121310000000     0.889990000000     0.036803   
C527     C      0.986460000000     0.154130000000     0.889990000000     0.036843   
C528     C      0.541950000000     0.154210000000     0.887470000000     0.0304669  
C529     C      0.783230000000     0.281690000000     0.247630000000     0.032518   
C530     C      0.742310000000     0.243920000000     0.247640000000     0.0325227  
C531     C      0.743490000000     0.242730000000     0.280590000000     0.0324279  
C532     C      0.782040000000     0.282910000000     0.280580000000     0.0325939  
C533     C      0.734990000000     0.262770000000     0.030600000000     0.0307325  
C534     C      0.790550000000     0.262690000000     0.030600000000     0.0307079  
C535     C      0.790540000000     0.262760000000     0.997610000000     0.0309459  
C536     C      0.734990000000     0.262680000000     0.997620000000     0.0307641  
C537     C      0.742500000000     0.493650000000     0.247630000000     0.0324707  
C538     C      0.783060000000     0.031810000000     0.247640000000     0.0312834  
C539     C      0.781860000000     0.032990000000     0.280590000000     0.0308403  
C540     C      0.743700000000     0.492440000000     0.280580000000     0.0324502  
C541     C      0.734990000000     0.012820000000     0.030610000000     0.0299744  
C542     C      0.790550000000     0.512730000000     0.030600000000     0.0306785  
C543     C      0.790540000000     0.512810000000     0.997610000000     0.0309077  
C544     C      0.734990000000     0.012730000000     0.997620000000     0.0299729  
C545     C      0.735050000000     0.404250000000     0.139470000000     0.0306364  
C546     C      0.790600000000     0.404180000000     0.139590000000     0.0304526  
C547     C      0.790510000000     0.371280000000     0.139480000000     0.0306156  
C548     C      0.734960000000     0.371350000000     0.139570000000     0.0304949  
C549     C      0.790590000000     0.154180000000     0.139620000000     0.0305084  
C550     C      0.735040000000     0.154250000000     0.139530000000     0.0305464  
C551     C      0.734950000000     0.121350000000     0.139630000000     0.0303691  
C552     C      0.790500000000     0.121280000000     0.139520000000     0.030638   
C553     C      0.992490000000     0.281890000000     0.247630000000     0.0387456  
C554     C      0.533030000000     0.243720000000     0.247640000000     0.0324222  
C555     C      0.531850000000     0.242550000000     0.280590000000     0.0325227  
C556     C      0.993680000000     0.283090000000     0.280580000000     0.0398129  
C557     C      0.984940000000     0.262740000000     0.997620000000     0.0371172  
C558     C      0.540500000000     0.262680000000     0.997610000000     0.0307882  
C559     C      0.540500000000     0.262750000000     0.030600000000     0.0307457  
C560     C      0.984950000000     0.262690000000     0.030600000000     0.0372596  
C561     C      0.992660000000     0.493450000000     0.247630000000     0.0387676  
C562     C      0.532840000000     0.032000000000     0.247640000000     0.0313054  
C563     C      0.531640000000     0.033170000000     0.280590000000     0.0308631  
C564     C      0.993870000000     0.492250000000     0.280580000000     0.0397901  
C565     C      0.984950000000     0.512790000000     0.030610000000     0.0371861  
C566     C      0.540500000000     0.012730000000     0.030600000000     0.0299592  
C567     C      0.540500000000     0.012790000000     0.997610000000     0.0299973  
C568     C      0.984940000000     0.512730000000     0.997620000000     0.037118   
C569     C      0.986470000000     0.404160000000     0.138190000000     0.0368064  
C570     C      0.541970000000     0.404240000000     0.140700000000     0.0304889  
C571     C      0.541970000000     0.371270000000     0.140700000000     0.0304961  
C572     C      0.986470000000     0.371350000000     0.138180000000     0.0368017  
C573     C      0.983500000000     0.154240000000     0.140750000000     0.0369527  
C574     C      0.539000000000     0.154160000000     0.138230000000     0.0304123  
C575     C      0.539000000000     0.121350000000     0.138230000000     0.0303538  
C576     C      0.983500000000     0.121270000000     0.140750000000     0.0368709  
C577     C      0.013860000000     0.952970000000     0.139440000000     0.464754   
C578     C      0.011620000000     0.572540000000     0.139470000000     0.465878   
C579     C      0.512740000000     0.512740000000     0.199230000000     0.47867    
C580     C      0.512730000000     0.512760000000     0.079500000000     0.476679   
C581     C      0.013860000000     0.822540000000     0.139430000000     0.465914   
C582     C      0.011620000000     0.702970000000     0.139470000000     0.465836   
C583     C      0.512730000000     0.762730000000     0.079500000000     0.476708   
C584     C      0.512750000000     0.762780000000     0.199220000000     0.478494   
C585     C      0.762870000000     0.952970000000     0.139470000000     0.475411   
C586     C      0.762680000000     0.572560000000     0.139500000000     0.476791   
C587     C      0.762770000000     0.512780000000     0.079500000000     0.476986   
C588     C      0.762780000000     0.512750000000     0.199240000000     0.478477   
C589     C      0.762770000000     0.762740000000     0.079500000000     0.477168   
C590     C      0.762780000000     0.762790000000     0.199230000000     0.478637   
C591     C      0.762860000000     0.702970000000     0.139500000000     0.476482   
C592     C      0.762680000000     0.822560000000     0.139460000000     0.476639   
C593     C      0.012720000000     0.512740000000     0.948720000000     0.466271   
C594     C      0.012720000000     0.512700000000     0.828990000000     0.467617   
C595     C      0.513840000000     0.572500000000     0.888750000000     0.476524   
C596     C      0.511600000000     0.952940000000     0.888780000000     0.475396   
C597     C      0.012720000000     0.762710000000     0.948720000000     0.466535   
C598     C      0.012720000000     0.762740000000     0.829000000000     0.468066   
C599     C      0.511600000000     0.822510000000     0.888780000000     0.476616   
C600     C      0.513840000000     0.702940000000     0.888750000000     0.476533   
C601     C      0.762660000000     0.952940000000     0.888760000000     0.475775   
C602     C      0.762860000000     0.572520000000     0.888720000000     0.476445   
C603     C      0.762760000000     0.512750000000     0.948720000000     0.477007   
C604     C      0.762750000000     0.512710000000     0.828990000000     0.478569   
C605     C      0.762850000000     0.822520000000     0.888750000000     0.476632   
C606     C      0.762670000000     0.702940000000     0.888720000000     0.476932   
C607     C      0.762760000000     0.762720000000     0.948720000000     0.477145   
C608     C      0.762750000000     0.762750000000     0.828990000000     0.478667   
C609     C      0.512760000000     0.012700000000     0.328990000000     0.467877   
C610     C      0.512770000000     0.012670000000     0.448720000000     0.46639    
C611     C      0.572560000000     0.512600000000     0.388740000000     0.476622   
C612     C      0.952970000000     0.512780000000     0.388740000000     0.475385   
C613     C      0.952980000000     0.761720000000     0.388770000000     0.475344   
C614     C      0.572550000000     0.763960000000     0.388770000000     0.476458   
C615     C      0.512770000000     0.762830000000     0.329000000000     0.478472   
C616     C      0.512770000000     0.762850000000     0.448720000000     0.477034   
C617     C      0.762760000000     0.512670000000     0.448720000000     0.476778   
C618     C      0.762780000000     0.512700000000     0.328990000000     0.478585   
C619     C      0.822560000000     0.012590000000     0.388740000000     0.466383   
C620     C      0.702980000000     0.012780000000     0.388730000000     0.465738   
C621     C      0.762760000000     0.762850000000     0.448720000000     0.476998   
C622     C      0.762770000000     0.762830000000     0.328990000000     0.478309   
C623     C      0.702990000000     0.763960000000     0.388760000000     0.476498   
C624     C      0.822550000000     0.761720000000     0.388770000000     0.476611   
C625     C      0.512750000000     0.012660000000     0.579500000000     0.46638    
C626     C      0.512730000000     0.012670000000     0.699230000000     0.467887   
C627     C      0.572530000000     0.512760000000     0.639490000000     0.476444   
C628     C      0.952950000000     0.512570000000     0.639470000000     0.475418   
C629     C      0.012750000000     0.762830000000     0.579500000000     0.475574   
C630     C      0.012730000000     0.762800000000     0.699220000000     0.476915   
C631     C      0.952960000000     0.763940000000     0.639440000000     0.475408   
C632     C      0.572520000000     0.761700000000     0.639460000000     0.476496   
C633     C      0.762740000000     0.512670000000     0.699230000000     0.478882   
C634     C      0.762740000000     0.512660000000     0.579500000000     0.4771     
C635     C      0.822530000000     0.012760000000     0.639480000000     0.466293   
C636     C      0.702950000000     0.012570000000     0.639490000000     0.466174   
C637     C      0.702960000000     0.761700000000     0.639460000000     0.476138   
C638     C      0.822520000000     0.763940000000     0.639450000000     0.476595   
C639     C      0.762740000000     0.762800000000     0.699230000000     0.478272   
C640     C      0.762740000000     0.762830000000     0.579500000000     0.476925   
C641     C      0.904150000000     0.736560000000     0.638190000000     0.0309761  
C642     C      0.904230000000     0.792050000000     0.640720000000     0.031057   
C643     C      0.871250000000     0.792050000000     0.640730000000     0.0309436  
C644     C      0.871330000000     0.736560000000     0.638190000000     0.0308652  
C645     C      0.621330000000     0.789080000000     0.638220000000     0.0305446  
C646     C      0.621250000000     0.733580000000     0.640730000000     0.0303879  
C647     C      0.654230000000     0.733580000000     0.640730000000     0.0304761  
C648     C      0.654150000000     0.789080000000     0.638220000000     0.0303932  
C649     C      0.904150000000     0.984850000000     0.639590000000     0.0374335  
C650     C      0.904220000000     0.540400000000     0.639490000000     0.0310471  
C651     C      0.871330000000     0.540490000000     0.639600000000     0.0307988  
C652     C      0.871260000000     0.984940000000     0.639490000000     0.0374199  
C653     C      0.621260000000     0.984930000000     0.639510000000     0.0369268  
C654     C      0.621330000000     0.540480000000     0.639610000000     0.0304216  
C655     C      0.654220000000     0.540390000000     0.639500000000     0.0305844  
C656     C      0.654150000000     0.984840000000     0.639620000000     0.0368586  
C657     C      0.762720000000     0.790620000000     0.497620000000     0.0309487  
C658     C      0.762780000000     0.735070000000     0.497610000000     0.0308611  
C659     C      0.762720000000     0.735070000000     0.530600000000     0.0309392  
C660     C      0.762780000000     0.790620000000     0.530600000000     0.0308831  
C661     C      0.762710000000     0.540440000000     0.497620000000     0.0309225  
C662     C      0.762790000000     0.984890000000     0.497620000000     0.037236   
C663     C      0.762710000000     0.984890000000     0.530600000000     0.0373559  
C664     C      0.762780000000     0.540440000000     0.530600000000     0.0308496  
C665     C      0.012790000000     0.790620000000     0.497620000000     0.0300763  
C666     C      0.512730000000     0.735070000000     0.497620000000     0.0307148  
C667     C      0.512790000000     0.735070000000     0.530600000000     0.030806   
C668     C      0.012730000000     0.790620000000     0.530600000000     0.0300064  
C669     C      0.904170000000     0.789100000000     0.390010000000     0.0309934  
C670     C      0.904260000000     0.733600000000     0.387500000000     0.0309796  
C671     C      0.871280000000     0.733600000000     0.387500000000     0.0308451  
C672     C      0.871360000000     0.789100000000     0.390010000000     0.0309105  
C673     C      0.621280000000     0.792070000000     0.387490000000     0.0305026  
C674     C      0.621360000000     0.736580000000     0.390020000000     0.0304595  
C675     C      0.654180000000     0.736580000000     0.390010000000     0.0304605  
C676     C      0.654260000000     0.792070000000     0.387490000000     0.0305111  
C677     C      0.012720000000     0.540440000000     0.497620000000     0.0300433  
C678     C      0.512800000000     0.984890000000     0.497620000000     0.0371167  
C679     C      0.512720000000     0.984890000000     0.530600000000     0.0372489  
C680     C      0.012800000000     0.540440000000     0.530600000000     0.0299676  
C681     C      0.904250000000     0.984950000000     0.388720000000     0.0374267  
C682     C      0.904180000000     0.540500000000     0.388630000000     0.0310042  
C683     C      0.871280000000     0.540410000000     0.388740000000     0.0310604  
C684     C      0.871360000000     0.984860000000     0.388610000000     0.0372334  
C685     C      0.621360000000     0.984870000000     0.388610000000     0.0368953  
C686     C      0.621280000000     0.540420000000     0.388720000000     0.0305333  
C687     C      0.654180000000     0.540510000000     0.388610000000     0.0303765  
C688     C      0.654250000000     0.984960000000     0.388710000000     0.0369644  
C689     C      0.783210000000     0.743890000000     0.780570000000     0.0325779  
C690     C      0.742290000000     0.781660000000     0.780590000000     0.03247    
C691     C      0.743470000000     0.782870000000     0.747640000000     0.0325484  
C692     C      0.782030000000     0.742700000000     0.747620000000     0.0325251  
C693     C      0.742460000000     0.531770000000     0.780580000000     0.0323738  
C694     C      0.783020000000     0.993610000000     0.780590000000     0.0398889  
C695     C      0.781820000000     0.992400000000     0.747640000000     0.0387512  
C696     C      0.743660000000     0.532960000000     0.747630000000     0.0324776  
C697     C      0.790580000000     0.871320000000     0.888640000000     0.0307911  
C698     C      0.735020000000     0.871250000000     0.888740000000     0.0309363  
C699     C      0.734930000000     0.904140000000     0.888640000000     0.0309174  
C700     C      0.790480000000     0.904210000000     0.888750000000     0.0312165  
C701     C      0.735030000000     0.621250000000     0.888700000000     0.0304775  
C702     C      0.790590000000     0.621320000000     0.888580000000     0.0303601  
C703     C      0.790490000000     0.654220000000     0.888690000000     0.0306264  
C704     C      0.734940000000     0.654140000000     0.888600000000     0.0304878  
C705     C      0.992450000000     0.743680000000     0.780570000000     0.0386363  
C706     C      0.532990000000     0.781850000000     0.780590000000     0.0325034  
C707     C      0.531810000000     0.783050000000     0.747640000000     0.0324855  
C708     C      0.993640000000     0.742520000000     0.747620000000     0.0399727  
C709     C      0.992630000000     0.531960000000     0.780580000000     0.0387281  
C710     C      0.532800000000     0.993410000000     0.780600000000     0.0399214  
C711     C      0.531600000000     0.992220000000     0.747650000000     0.0387754  
C712     C      0.993830000000     0.533130000000     0.747630000000     0.0398634  
C713     C      0.538980000000     0.904130000000     0.890040000000     0.0309064  
C714     C      0.983480000000     0.904210000000     0.887520000000     0.0374629  
C715     C      0.983480000000     0.871230000000     0.887520000000     0.0373778  
C716     C      0.538980000000     0.871320000000     0.890040000000     0.0308063  
C717     C      0.541950000000     0.621230000000     0.887470000000     0.0304733  
C718     C      0.986460000000     0.621310000000     0.889990000000     0.0368299  
C719     C      0.986460000000     0.654130000000     0.889990000000     0.0368243  
C720     C      0.541950000000     0.654210000000     0.887470000000     0.0304549  
C721     C      0.783230000000     0.781690000000     0.247630000000     0.0326249  
C722     C      0.742310000000     0.743920000000     0.247640000000     0.032524   
C723     C      0.743490000000     0.742730000000     0.280590000000     0.032472   
C724     C      0.782050000000     0.782910000000     0.280580000000     0.032474   
C725     C      0.734990000000     0.762770000000     0.030600000000     0.0308247  
C726     C      0.790550000000     0.762690000000     0.030600000000     0.0307977  
C727     C      0.790540000000     0.762760000000     0.997610000000     0.031038   
C728     C      0.734990000000     0.762680000000     0.997620000000     0.0308542  
C729     C      0.742500000000     0.993650000000     0.247630000000     0.0398603  
C730     C      0.783060000000     0.531810000000     0.247640000000     0.0324177  
C731     C      0.781860000000     0.532990000000     0.280590000000     0.0325029  
C732     C      0.743700000000     0.992440000000     0.280580000000     0.0387548  
C733     C      0.734990000000     0.512810000000     0.030610000000     0.0307277  
C734     C      0.790550000000     0.012740000000     0.030600000000     0.0299231  
C735     C      0.790540000000     0.012810000000     0.997610000000     0.0301535  
C736     C      0.734990000000     0.512730000000     0.997620000000     0.030729   
C737     C      0.735050000000     0.904250000000     0.139470000000     0.0311235  
C738     C      0.790600000000     0.904180000000     0.139590000000     0.0309644  
C739     C      0.790510000000     0.871280000000     0.139480000000     0.0310093  
C740     C      0.734960000000     0.871350000000     0.139570000000     0.0308765  
C741     C      0.790590000000     0.654180000000     0.139620000000     0.0304834  
C742     C      0.735040000000     0.654250000000     0.139530000000     0.0305258  
C743     C      0.734950000000     0.621350000000     0.139630000000     0.0304161  
C744     C      0.790500000000     0.621280000000     0.139520000000     0.0306729  
C745     C      0.992490000000     0.781890000000     0.247630000000     0.038785   
C746     C      0.533030000000     0.743720000000     0.247640000000     0.0324454  
C747     C      0.531850000000     0.742550000000     0.280590000000     0.0325164  
C748     C      0.993680000000     0.783090000000     0.280580000000     0.0398255  
C749     C      0.984940000000     0.762740000000     0.997620000000     0.037205   
C750     C      0.540500000000     0.762680000000     0.997610000000     0.0308837  
C751     C      0.540500000000     0.762740000000     0.030600000000     0.030829   
C752     C      0.984950000000     0.762690000000     0.030600000000     0.0373452  
C753     C      0.992660000000     0.993450000000     0.247630000000     0.0461167  
C754     C      0.532840000000     0.532000000000     0.247640000000     0.0324209  
C755     C      0.531640000000     0.533170000000     0.280590000000     0.0325305  
C756     C      0.993870000000     0.992250000000     0.280580000000     0.0460493  
C757     C      0.984950000000     0.012790000000     0.030610000000     0.0364156  
C758     C      0.540500000000     0.512730000000     0.030600000000     0.0307178  
C759     C      0.540500000000     0.512790000000     0.997610000000     0.0307515  
C760     C      0.984940000000     0.012730000000     0.997620000000     0.0363495  
C761     C      0.986470000000     0.904160000000     0.138190000000     0.0372709  
C762     C      0.541970000000     0.904240000000     0.140700000000     0.0310081  
C763     C      0.541970000000     0.871270000000     0.140700000000     0.0308864  
C764     C      0.986470000000     0.871350000000     0.138180000000     0.0371754  
C765     C      0.983500000000     0.654240000000     0.140750000000     0.036929   
C766     C      0.539000000000     0.654160000000     0.138230000000     0.0303853  
C767     C      0.539000000000     0.621350000000     0.138230000000     0.0303904  
C768     C      0.983500000000     0.621260000000     0.140750000000     0.0369637  
H1       H      0.415970000000     0.213940000000     0.637160000000     0.0333385  
H2       H      0.416240000000     0.314570000000     0.641750000000     0.0332522  
H3       H      0.359240000000     0.314570000000     0.641760000000     0.0332159  
H4       H      0.359500000000     0.213940000000     0.637160000000     0.0333945  
H5       H      0.109510000000     0.311700000000     0.637200000000     0.0332869  
H6       H      0.109240000000     0.211070000000     0.641740000000     0.0330059  
H7       H      0.166240000000     0.211070000000     0.641740000000     0.0331183  
H8       H      0.165980000000     0.311700000000     0.637200000000     0.0334287  
H9       H      0.416050000000     0.462240000000     0.639600000000     0.0332952  
H10      H      0.416170000000     0.062980000000     0.639490000000     0.0332985  
H11      H      0.359430000000     0.063100000000     0.639620000000     0.0330327  
H12      H      0.359300000000     0.462370000000     0.639490000000     0.0335451  
H13      H      0.109300000000     0.462350000000     0.639520000000     0.033131   
H14      H      0.109430000000     0.063080000000     0.639610000000     0.033144   
H15      H      0.166170000000     0.062970000000     0.639490000000     0.0335212  
H16      H      0.166050000000     0.462240000000     0.639630000000     0.032974   
H17      H      0.262720000000     0.313210000000     0.485660000000     0.0332912  
H18      H      0.262790000000     0.212480000000     0.485660000000     0.0332058  
H19      H      0.262710000000     0.212480000000     0.542550000000     0.033278   
H20      H      0.262780000000     0.313200000000     0.542560000000     0.033311   
H21      H      0.262710000000     0.063030000000     0.485670000000     0.033318   
H22      H      0.262800000000     0.462300000000     0.485660000000     0.0332949  
H23      H      0.262700000000     0.462300000000     0.542560000000     0.0332658  
H24      H      0.262790000000     0.063030000000     0.542560000000     0.0333317  
H25      H      0.512800000000     0.313210000000     0.485660000000     0.0332555  
H26      H      0.012730000000     0.212480000000     0.485660000000     0.0323436  
H27      H      0.012790000000     0.212480000000     0.542550000000     0.0323594  
H28      H      0.512720000000     0.313210000000     0.542560000000     0.03328    
H29      H      0.416000000000     0.311720000000     0.391030000000     0.0333829  
H30      H      0.416270000000     0.211090000000     0.386480000000     0.0332057  
H31      H      0.359270000000     0.211090000000     0.386480000000     0.0331846  
H32      H      0.359530000000     0.311720000000     0.391030000000     0.0334435  
H33      H      0.109270000000     0.314590000000     0.386460000000     0.0330346  
H34      H      0.109530000000     0.213960000000     0.391040000000     0.033221   
H35      H      0.166000000000     0.213960000000     0.391040000000     0.0333692  
H36      H      0.166270000000     0.314590000000     0.386460000000     0.0331475  
H37      H      0.512720000000     0.063030000000     0.485670000000     0.0332833  
H38      H      0.012810000000     0.462300000000     0.485660000000     0.0323944  
H39      H      0.012710000000     0.462300000000     0.542560000000     0.0323908  
H40      H      0.512800000000     0.063030000000     0.542560000000     0.0333064  
H41      H      0.416200000000     0.462370000000     0.388710000000     0.0332445  
H42      H      0.416080000000     0.063110000000     0.388630000000     0.0333259  
H43      H      0.359330000000     0.062990000000     0.388750000000     0.0336032  
H44      H      0.359460000000     0.462250000000     0.388590000000     0.0329958  
H45      H      0.109460000000     0.462270000000     0.388600000000     0.0331097  
H46      H      0.109330000000     0.063000000000     0.388720000000     0.0331676  
H47      H      0.166080000000     0.063120000000     0.388600000000     0.0330107  
H48      H      0.166200000000     0.462380000000     0.388720000000     0.0334707  
H49      H      0.299470000000     0.228450000000     0.792870000000     0.0302641  
H50      H      0.226030000000     0.297080000000     0.792900000000     0.0302954  
H51      H      0.227730000000     0.298840000000     0.735340000000     0.0303263  
H52      H      0.297770000000     0.226740000000     0.735310000000     0.0303099  
H53      H      0.226350000000     0.047350000000     0.792890000000     0.0300805  
H54      H      0.299140000000     0.478040000000     0.792900000000     0.0304241  
H55      H      0.297400000000     0.476280000000     0.735330000000     0.0304737  
H56      H      0.228080000000     0.049070000000     0.735320000000     0.0302214  
H57      H      0.313180000000     0.359420000000     0.888630000000     0.0333332  
H58      H      0.212450000000     0.359300000000     0.888740000000     0.0332196  
H59      H      0.212330000000     0.416040000000     0.888630000000     0.0329609  
H60      H      0.313060000000     0.416170000000     0.888750000000     0.0335186  
H61      H      0.212460000000     0.109300000000     0.888710000000     0.0333369  
H62      H      0.313190000000     0.109420000000     0.888570000000     0.0328671  
H63      H      0.313070000000     0.166170000000     0.888690000000     0.0332035  
H64      H      0.212340000000     0.166040000000     0.888600000000     0.0332062  
H65      H      0.476340000000     0.228090000000     0.792860000000     0.0303144  
H66      H      0.049100000000     0.297440000000     0.792900000000     0.0302078  
H67      H      0.047400000000     0.299170000000     0.735350000000     0.0300772  
H68      H      0.478040000000     0.226410000000     0.735320000000     0.0303034  
H69      H      0.476660000000     0.047700000000     0.792880000000     0.0300153  
H70      H      0.048770000000     0.477670000000     0.792910000000     0.0301968  
H71      H      0.047040000000     0.475950000000     0.735350000000     0.0300075  
H72      H      0.478400000000     0.049390000000     0.735320000000     0.0301299  
H73      H      0.061590000000     0.415960000000     0.891070000000     0.0335042  
H74      H      0.460970000000     0.416220000000     0.886490000000     0.0332073  
H75      H      0.460970000000     0.359220000000     0.886490000000     0.0332468  
H76      H      0.061590000000     0.359490000000     0.891070000000     0.0334764  
H77      H      0.064470000000     0.109220000000     0.886450000000     0.0330109  
H78      H      0.463840000000     0.109490000000     0.891010000000     0.0332499  
H79      H      0.463840000000     0.165960000000     0.891010000000     0.0333754  
H80      H      0.064470000000     0.166220000000     0.886450000000     0.0332007  
H81      H      0.299490000000     0.297120000000     0.235320000000     0.0303029  
H82      H      0.226050000000     0.228490000000     0.235340000000     0.0302415  
H83      H      0.227750000000     0.226770000000     0.292900000000     0.0302995  
H84      H      0.297790000000     0.298870000000     0.292880000000     0.0303523  
H85      H      0.212410000000     0.262780000000     0.042560000000     0.0332462  
H86      H      0.313140000000     0.262690000000     0.042550000000     0.0332866  
H87      H      0.313130000000     0.262760000000     0.985660000000     0.0332461  
H88      H      0.212400000000     0.262670000000     0.985660000000     0.0332365  
H89      H      0.226380000000     0.478070000000     0.235310000000     0.030385   
H90      H      0.299170000000     0.047390000000     0.235340000000     0.0301404  
H91      H      0.297440000000     0.049100000000     0.292910000000     0.0302713  
H92      H      0.228120000000     0.476320000000     0.292880000000     0.0304102  
H93      H      0.212410000000     0.012820000000     0.042560000000     0.0323314  
H94      H      0.313140000000     0.512730000000     0.042560000000     0.0332717  
H95      H      0.313130000000     0.512810000000     0.985660000000     0.0332151  
H96      H      0.212400000000     0.012720000000     0.985670000000     0.0323445  
H97      H      0.212470000000     0.416200000000     0.139470000000     0.0334677  
H98      H      0.313200000000     0.416080000000     0.139600000000     0.0329934  
H99      H      0.313080000000     0.359330000000     0.139480000000     0.0332571  
H100     H      0.212350000000     0.359460000000     0.139580000000     0.0332321  
H101     H      0.313190000000     0.166080000000     0.139630000000     0.03326    
H102     H      0.212460000000     0.166200000000     0.139530000000     0.0331595  
H103     H      0.212340000000     0.109450000000     0.139650000000     0.0327733  
H104     H      0.313070000000     0.109330000000     0.139510000000     0.0333899  
H105     H      0.476370000000     0.297470000000     0.235330000000     0.0303129  
H106     H      0.049140000000     0.228120000000     0.235340000000     0.03019    
H107     H      0.047450000000     0.226440000000     0.292890000000     0.0300047  
H108     H      0.478090000000     0.299200000000     0.292870000000     0.0303594  
H109     H      0.462350000000     0.262740000000     0.985670000000     0.0332699  
H110     H      0.063080000000     0.262670000000     0.985660000000     0.0333164  
H111     H      0.063090000000     0.262750000000     0.042550000000     0.0333293  
H112     H      0.462360000000     0.262680000000     0.042560000000     0.0332928  
H113     H      0.476700000000     0.477710000000     0.235320000000     0.0303248  
H114     H      0.048800000000     0.047750000000     0.235330000000     0.0298844  
H115     H      0.047080000000     0.049430000000     0.292890000000     0.0298278  
H116     H      0.478440000000     0.475990000000     0.292880000000     0.0302914  
H117     H      0.462360000000     0.512800000000     0.042560000000     0.0332128  
H118     H      0.063090000000     0.012730000000     0.042550000000     0.0324164  
H119     H      0.063090000000     0.012790000000     0.985660000000     0.0324165  
H120     H      0.462360000000     0.512720000000     0.985670000000     0.0332685  
H121     H      0.463860000000     0.415990000000     0.137160000000     0.0334166  
H122     H      0.064490000000     0.416260000000     0.141720000000     0.033204   
H123     H      0.064490000000     0.359250000000     0.141720000000     0.0332642  
H124     H      0.463860000000     0.359520000000     0.137160000000     0.0333875  
H125     H      0.460980000000     0.166260000000     0.141780000000     0.0331975  
H126     H      0.061610000000     0.165990000000     0.137200000000     0.033427   
H127     H      0.061610000000     0.109520000000     0.137200000000     0.0333595  
H128     H      0.460980000000     0.109260000000     0.141780000000     0.0330065  
H129     H      0.415970000000     0.713940000000     0.637160000000     0.0333407  
H130     H      0.416240000000     0.814570000000     0.641750000000     0.0333695  
H131     H      0.359240000000     0.814570000000     0.641760000000     0.0333272  
H132     H      0.359500000000     0.713940000000     0.637160000000     0.0333984  
H133     H      0.109510000000     0.811700000000     0.637200000000     0.0333621  
H134     H      0.109240000000     0.711070000000     0.641740000000     0.0330185  
H135     H      0.166240000000     0.711070000000     0.641740000000     0.0331138  
H136     H      0.165980000000     0.811700000000     0.637200000000     0.0335445  
H137     H      0.416050000000     0.962240000000     0.639600000000     0.0329065  
H138     H      0.416170000000     0.562980000000     0.639490000000     0.0332134  
H139     H      0.359430000000     0.563100000000     0.639620000000     0.0329623  
H140     H      0.359300000000     0.962360000000     0.639490000000     0.0330944  
H141     H      0.109310000000     0.962350000000     0.639510000000     0.032691   
H142     H      0.109430000000     0.563080000000     0.639610000000     0.0330734  
H143     H      0.166170000000     0.562960000000     0.639490000000     0.0334486  
H144     H      0.166050000000     0.962230000000     0.639630000000     0.0325716  
H145     H      0.262720000000     0.813210000000     0.485660000000     0.033372   
H146     H      0.262790000000     0.712480000000     0.485660000000     0.0332452  
H147     H      0.262710000000     0.712470000000     0.542550000000     0.0332152  
H148     H      0.262780000000     0.813210000000     0.542560000000     0.0333887  
H149     H      0.262710000000     0.563030000000     0.485670000000     0.0332403  
H150     H      0.262800000000     0.962300000000     0.485660000000     0.0328641  
H151     H      0.262700000000     0.962300000000     0.542560000000     0.0328334  
H152     H      0.262790000000     0.563030000000     0.542560000000     0.0332545  
H153     H      0.512800000000     0.813210000000     0.485660000000     0.0333529  
H154     H      0.012730000000     0.712480000000     0.485660000000     0.0323728  
H155     H      0.012790000000     0.712480000000     0.542550000000     0.032327   
H156     H      0.512720000000     0.813210000000     0.542560000000     0.0333683  
H157     H      0.416000000000     0.811720000000     0.391030000000     0.033486   
H158     H      0.416270000000     0.711090000000     0.386480000000     0.0332132  
H159     H      0.359270000000     0.711090000000     0.386480000000     0.0331892  
H160     H      0.359530000000     0.811720000000     0.391030000000     0.0335517  
H161     H      0.109270000000     0.814590000000     0.386460000000     0.0331601  
H162     H      0.109530000000     0.713960000000     0.391040000000     0.0332346  
H163     H      0.166000000000     0.713960000000     0.391040000000     0.0333524  
H164     H      0.166270000000     0.814590000000     0.386460000000     0.0332494  
H165     H      0.512720000000     0.563030000000     0.485670000000     0.0332132  
H166     H      0.012810000000     0.962310000000     0.485660000000     0.0319631  
H167     H      0.012710000000     0.962300000000     0.542560000000     0.0319591  
H168     H      0.512800000000     0.563030000000     0.542560000000     0.033229   
H169     H      0.416200000000     0.962380000000     0.388710000000     0.0328158  
H170     H      0.416080000000     0.563110000000     0.388630000000     0.033261   
H171     H      0.359330000000     0.562990000000     0.388750000000     0.0335182  
H172     H      0.359460000000     0.962260000000     0.388590000000     0.0326164  
H173     H      0.109460000000     0.962270000000     0.388600000000     0.0327175  
H174     H      0.109330000000     0.562990000000     0.388720000000     0.0330976  
H175     H      0.166080000000     0.563110000000     0.388600000000     0.0329399  
H176     H      0.166200000000     0.962390000000     0.388720000000     0.0330511  
H177     H      0.299470000000     0.728450000000     0.792870000000     0.0302904  
H178     H      0.226030000000     0.797080000000     0.792900000000     0.030432   
H179     H      0.227730000000     0.798840000000     0.735340000000     0.0304405  
H180     H      0.297770000000     0.726740000000     0.735310000000     0.0303224  
H181     H      0.226350000000     0.547350000000     0.792890000000     0.0303767  
H182     H      0.299140000000     0.978040000000     0.792900000000     0.0311576  
H183     H      0.297400000000     0.976280000000     0.735330000000     0.0307404  
H184     H      0.228080000000     0.549070000000     0.735320000000     0.0303787  
H185     H      0.313180000000     0.859420000000     0.888630000000     0.0336816  
H186     H      0.212450000000     0.859300000000     0.888740000000     0.0335917  
H187     H      0.212330000000     0.916040000000     0.888630000000     0.0341068  
H188     H      0.313060000000     0.916160000000     0.888750000000     0.034655   
H189     H      0.212460000000     0.609300000000     0.888710000000     0.0334598  
H190     H      0.313190000000     0.609420000000     0.888570000000     0.0330169  
H191     H      0.313070000000     0.666170000000     0.888690000000     0.0332132  
H192     H      0.212340000000     0.666040000000     0.888600000000     0.0332217  
H193     H      0.476340000000     0.728090000000     0.792860000000     0.0303372  
H194     H      0.049100000000     0.797440000000     0.792900000000     0.0303374  
H195     H      0.047400000000     0.799170000000     0.735360000000     0.030191   
H196     H      0.478040000000     0.726410000000     0.735320000000     0.030289   
H197     H      0.476660000000     0.547700000000     0.792880000000     0.0303129  
H198     H      0.048770000000     0.977670000000     0.792910000000     0.030923   
H199     H      0.047040000000     0.975950000000     0.735350000000     0.0302761  
H200     H      0.478400000000     0.549390000000     0.735320000000     0.0302734  
H201     H      0.061590000000     0.915960000000     0.891070000000     0.0346131  
H202     H      0.460970000000     0.916220000000     0.886490000000     0.0343425  
H203     H      0.460970000000     0.859220000000     0.886490000000     0.033607   
H204     H      0.061590000000     0.859490000000     0.891070000000     0.0338323  
H205     H      0.064470000000     0.609220000000     0.886450000000     0.0331748  
H206     H      0.463840000000     0.609490000000     0.891010000000     0.0333764  
H207     H      0.463840000000     0.665960000000     0.891010000000     0.0333916  
H208     H      0.064470000000     0.666220000000     0.886450000000     0.0332226  
H209     H      0.299490000000     0.797120000000     0.235320000000     0.0304329  
H210     H      0.226050000000     0.728490000000     0.235340000000     0.0302629  
H211     H      0.227750000000     0.726770000000     0.292900000000     0.0303055  
H212     H      0.297790000000     0.798870000000     0.292880000000     0.0304926  
H213     H      0.212410000000     0.762780000000     0.042560000000     0.0333509  
H214     H      0.313140000000     0.762690000000     0.042550000000     0.0333935  
H215     H      0.313130000000     0.762760000000     0.985660000000     0.0333481  
H216     H      0.212400000000     0.762670000000     0.985660000000     0.0333381  
H217     H      0.226380000000     0.978070000000     0.235310000000     0.0310975  
H218     H      0.299170000000     0.547390000000     0.235340000000     0.030439   
H219     H      0.297440000000     0.549100000000     0.292910000000     0.0304201  
H220     H      0.228120000000     0.976310000000     0.292880000000     0.0306898  
H221     H      0.212410000000     0.512820000000     0.042560000000     0.0331999  
H222     H      0.313140000000     0.012730000000     0.042560000000     0.0324138  
H223     H      0.313130000000     0.012810000000     0.985660000000     0.0323453  
H224     H      0.212400000000     0.512720000000     0.985670000000     0.0332008  
H225     H      0.212470000000     0.916200000000     0.139470000000     0.034566   
H226     H      0.313200000000     0.916080000000     0.139600000000     0.0341392  
H227     H      0.313080000000     0.859330000000     0.139480000000     0.0336228  
H228     H      0.212350000000     0.859460000000     0.139580000000     0.0335835  
H229     H      0.313190000000     0.666070000000     0.139630000000     0.0332688  
H230     H      0.212460000000     0.666200000000     0.139530000000     0.0331817  
H231     H      0.212340000000     0.609450000000     0.139650000000     0.0329197  
H232     H      0.313070000000     0.609330000000     0.139510000000     0.0335123  
H233     H      0.476370000000     0.797470000000     0.235330000000     0.0304544  
H234     H      0.049140000000     0.728120000000     0.235340000000     0.0302008  
H235     H      0.047450000000     0.726440000000     0.292890000000     0.0300223  
H236     H      0.478090000000     0.799200000000     0.292870000000     0.0304652  
H237     H      0.462350000000     0.762740000000     0.985670000000     0.0333714  
H238     H      0.063080000000     0.762670000000     0.985660000000     0.0334159  
H239     H      0.063090000000     0.762750000000     0.042550000000     0.0334232  
H240     H      0.462360000000     0.762690000000     0.042560000000     0.0333944  
H241     H      0.476700000000     0.977710000000     0.235320000000     0.0310244  
H242     H      0.048800000000     0.547740000000     0.235330000000     0.0301883  
H243     H      0.047080000000     0.549430000000     0.292890000000     0.0299711  
H244     H      0.478440000000     0.975980000000     0.292880000000     0.0305598  
H245     H      0.462360000000     0.012800000000     0.042560000000     0.0323466  
H246     H      0.063090000000     0.512730000000     0.042550000000     0.0332759  
H247     H      0.063090000000     0.512790000000     0.985660000000     0.0332819  
H248     H      0.462360000000     0.012720000000     0.985670000000     0.0324061  
H249     H      0.463860000000     0.915990000000     0.137160000000     0.034527   
H250     H      0.064490000000     0.916250000000     0.141730000000     0.0343348  
H251     H      0.064490000000     0.859250000000     0.141720000000     0.0336239  
H252     H      0.463860000000     0.859520000000     0.137160000000     0.0337489  
H253     H      0.460980000000     0.666260000000     0.141780000000     0.0332257  
H254     H      0.061610000000     0.665990000000     0.137200000000     0.0334442  
H255     H      0.061610000000     0.609520000000     0.137200000000     0.0334802  
H256     H      0.460980000000     0.609260000000     0.141780000000     0.0331484  
H257     H      0.915970000000     0.213940000000     0.637160000000     0.0344219  
H258     H      0.916240000000     0.314570000000     0.641750000000     0.0344264  
H259     H      0.859240000000     0.314570000000     0.641760000000     0.0335946  
H260     H      0.859500000000     0.213940000000     0.637160000000     0.0337438  
H261     H      0.609510000000     0.311700000000     0.637200000000     0.0333807  
H262     H      0.609240000000     0.211070000000     0.641740000000     0.0331898  
H263     H      0.666240000000     0.211070000000     0.641740000000     0.0331551  
H264     H      0.665980000000     0.311700000000     0.637200000000     0.0334358  
H265     H      0.916050000000     0.462240000000     0.639600000000     0.0344694  
H266     H      0.916170000000     0.062970000000     0.639490000000     0.0343828  
H267     H      0.859430000000     0.063100000000     0.639620000000     0.0333691  
H268     H      0.859310000000     0.462370000000     0.639490000000     0.0339326  
H269     H      0.609310000000     0.462360000000     0.639520000000     0.0332291  
H270     H      0.609430000000     0.063080000000     0.639610000000     0.0333116  
H271     H      0.666170000000     0.062970000000     0.639490000000     0.0335554  
H272     H      0.666050000000     0.462240000000     0.639630000000     0.0329788  
H273     H      0.762720000000     0.313210000000     0.485660000000     0.0333941  
H274     H      0.762790000000     0.212480000000     0.485660000000     0.0333092  
H275     H      0.762710000000     0.212480000000     0.542550000000     0.0333803  
H276     H      0.762780000000     0.313200000000     0.542560000000     0.0334139  
H277     H      0.762710000000     0.063030000000     0.485670000000     0.0334212  
H278     H      0.762800000000     0.462300000000     0.485660000000     0.0333972  
H279     H      0.762700000000     0.462300000000     0.542560000000     0.033369   
H280     H      0.762790000000     0.063030000000     0.542560000000     0.0334335  
H281     H      0.012800000000     0.313210000000     0.485660000000     0.0323791  
H282     H      0.512730000000     0.212480000000     0.485660000000     0.0332004  
H283     H      0.512790000000     0.212480000000     0.542550000000     0.0332345  
H284     H      0.012720000000     0.313210000000     0.542560000000     0.0324219  
H285     H      0.916000000000     0.311720000000     0.391030000000     0.0344773  
H286     H      0.916270000000     0.211090000000     0.386480000000     0.0343798  
H287     H      0.859270000000     0.211090000000     0.386480000000     0.0335619  
H288     H      0.859530000000     0.311720000000     0.391030000000     0.0337901  
H289     H      0.609270000000     0.314590000000     0.386460000000     0.0332186  
H290     H      0.609530000000     0.213960000000     0.391040000000     0.0333135  
H291     H      0.666000000000     0.213960000000     0.391040000000     0.0333861  
H292     H      0.666270000000     0.314590000000     0.386460000000     0.0331949  
H293     H      0.012720000000     0.063030000000     0.485670000000     0.0324294  
H294     H      0.512810000000     0.462300000000     0.485660000000     0.0332733  
H295     H      0.512710000000     0.462300000000     0.542560000000     0.0332467  
H296     H      0.012800000000     0.063030000000     0.542560000000     0.0324292  
H297     H      0.916200000000     0.462370000000     0.388710000000     0.0343087  
H298     H      0.916080000000     0.063110000000     0.388630000000     0.0344938  
H299     H      0.859330000000     0.062990000000     0.388750000000     0.0339682  
H300     H      0.859460000000     0.462250000000     0.388590000000     0.0333416  
H301     H      0.609460000000     0.462270000000     0.388600000000     0.0332815  
H302     H      0.609330000000     0.063000000000     0.388720000000     0.0332681  
H303     H      0.666080000000     0.063120000000     0.388600000000     0.0330193  
H304     H      0.666200000000     0.462380000000     0.388720000000     0.0335049  
H305     H      0.799470000000     0.228450000000     0.792870000000     0.0303618  
H306     H      0.726030000000     0.297080000000     0.792900000000     0.0302953  
H307     H      0.727730000000     0.298840000000     0.735340000000     0.0303295  
H308     H      0.797770000000     0.226740000000     0.735310000000     0.0304346  
H309     H      0.726350000000     0.047350000000     0.792890000000     0.0301217  
H310     H      0.799140000000     0.478040000000     0.792900000000     0.0305553  
H311     H      0.797400000000     0.476280000000     0.735330000000     0.0306244  
H312     H      0.728080000000     0.049070000000     0.735320000000     0.0302334  
H313     H      0.813180000000     0.359420000000     0.888630000000     0.0334609  
H314     H      0.712450000000     0.359300000000     0.888740000000     0.033214   
H315     H      0.712330000000     0.416040000000     0.888630000000     0.0329557  
H316     H      0.813060000000     0.416170000000     0.888750000000     0.0336449  
H317     H      0.712460000000     0.109300000000     0.888710000000     0.0333743  
H318     H      0.813190000000     0.109420000000     0.888570000000     0.0329413  
H319     H      0.813070000000     0.166170000000     0.888690000000     0.0332966  
H320     H      0.712340000000     0.166040000000     0.888600000000     0.0332002  
H321     H      0.976340000000     0.228090000000     0.792860000000     0.0305329  
H322     H      0.549100000000     0.297440000000     0.792900000000     0.0303128  
H323     H      0.547400000000     0.299170000000     0.735350000000     0.0303254  
H324     H      0.978040000000     0.226410000000     0.735320000000     0.0309366  
H325     H      0.976660000000     0.047700000000     0.792880000000     0.0302328  
H326     H      0.548770000000     0.477670000000     0.792910000000     0.0303022  
H327     H      0.547040000000     0.475950000000     0.735350000000     0.0302617  
H328     H      0.978400000000     0.049390000000     0.735320000000     0.0307963  
H329     H      0.561590000000     0.415960000000     0.891070000000     0.0334084  
H330     H      0.960970000000     0.416220000000     0.886490000000     0.0328601  
H331     H      0.960970000000     0.359220000000     0.886490000000     0.0328992  
H332     H      0.561600000000     0.359490000000     0.891070000000     0.0333646  
H333     H      0.564470000000     0.109220000000     0.886450000000     0.0329674  
H334     H      0.963840000000     0.109490000000     0.891010000000     0.0327958  
H335     H      0.963840000000     0.165960000000     0.891010000000     0.0328747  
H336     H      0.564470000000     0.166220000000     0.886450000000     0.0331606  
H337     H      0.799500000000     0.297120000000     0.235320000000     0.0304073  
H338     H      0.726050000000     0.228490000000     0.235340000000     0.0302436  
H339     H      0.727750000000     0.226770000000     0.292900000000     0.0303068  
H340     H      0.797790000000     0.298870000000     0.292880000000     0.0304513  
H341     H      0.712410000000     0.262780000000     0.042560000000     0.0332489  
H342     H      0.813130000000     0.262690000000     0.042550000000     0.03339    
H343     H      0.813130000000     0.262760000000     0.985660000000     0.0333341  
H344     H      0.712400000000     0.262670000000     0.985660000000     0.0332371  
H345     H      0.726380000000     0.478070000000     0.235310000000     0.0304053  
H346     H      0.799170000000     0.047390000000     0.235340000000     0.0302713  
H347     H      0.797440000000     0.049100000000     0.292910000000     0.030424   
H348     H      0.728120000000     0.476320000000     0.292880000000     0.0304242  
H349     H      0.712410000000     0.012820000000     0.042560000000     0.0323326  
H350     H      0.813130000000     0.512730000000     0.042560000000     0.033376   
H351     H      0.813130000000     0.512810000000     0.985660000000     0.0333035  
H352     H      0.712400000000     0.012720000000     0.985670000000     0.0323448  
H353     H      0.712470000000     0.416200000000     0.139470000000     0.0334906  
H354     H      0.813210000000     0.416080000000     0.139600000000     0.0330908  
H355     H      0.813090000000     0.359330000000     0.139480000000     0.0333381  
H356     H      0.712350000000     0.359460000000     0.139580000000     0.0332472  
H357     H      0.813190000000     0.166080000000     0.139630000000     0.033389   
H358     H      0.712460000000     0.166200000000     0.139530000000     0.0331567  
H359     H      0.712340000000     0.109450000000     0.139650000000     0.0327662  
H360     H      0.813080000000     0.109330000000     0.139510000000     0.0335056  
H361     H      0.976370000000     0.297470000000     0.235330000000     0.0305543  
H362     H      0.549140000000     0.228120000000     0.235340000000     0.0302882  
H363     H      0.547450000000     0.226440000000     0.292890000000     0.0302541  
H364     H      0.978090000000     0.299200000000     0.292870000000     0.0310061  
H365     H      0.962350000000     0.262740000000     0.985670000000     0.0328525  
H366     H      0.563080000000     0.262670000000     0.985660000000     0.0332373  
H367     H      0.563090000000     0.262750000000     0.042550000000     0.0332552  
H368     H      0.962360000000     0.262680000000     0.042560000000     0.0328287  
H369     H      0.976700000000     0.477710000000     0.235320000000     0.0305552  
H370     H      0.548800000000     0.047750000000     0.235330000000     0.0299906  
H371     H      0.547080000000     0.049430000000     0.292890000000     0.0300784  
H372     H      0.978450000000     0.475990000000     0.292880000000     0.0309594  
H373     H      0.962360000000     0.512800000000     0.042560000000     0.0327896  
H374     H      0.563090000000     0.012730000000     0.042550000000     0.0323612  
H375     H      0.563080000000     0.012790000000     0.985660000000     0.032342   
H376     H      0.962350000000     0.512720000000     0.985670000000     0.0328163  
H377     H      0.963860000000     0.415990000000     0.137160000000     0.0329647  
H378     H      0.564490000000     0.416260000000     0.141730000000     0.033163   
H379     H      0.564490000000     0.359250000000     0.141720000000     0.0332234  
H380     H      0.963860000000     0.359520000000     0.137160000000     0.0329364  
H381     H      0.960990000000     0.166260000000     0.141780000000     0.0328618  
H382     H      0.561610000000     0.165990000000     0.137200000000     0.0333286  
H383     H      0.561610000000     0.109520000000     0.137200000000     0.0332613  
H384     H      0.960990000000     0.109260000000     0.141780000000     0.0326682  
H385     H      0.915970000000     0.713940000000     0.637160000000     0.0344244  
H386     H      0.916240000000     0.814570000000     0.641750000000     0.0345412  
H387     H      0.859240000000     0.814570000000     0.641760000000     0.033705   
H388     H      0.859500000000     0.713940000000     0.637160000000     0.0337479  
H389     H      0.609510000000     0.811700000000     0.637200000000     0.0334553  
H390     H      0.609240000000     0.711070000000     0.641740000000     0.0332027  
H391     H      0.666240000000     0.711070000000     0.641740000000     0.033151   
H392     H      0.665980000000     0.811700000000     0.637200000000     0.0335514  
H393     H      0.916050000000     0.962240000000     0.639600000000     0.03408    
H394     H      0.916170000000     0.562980000000     0.639490000000     0.034288   
H395     H      0.859430000000     0.563100000000     0.639620000000     0.0333072  
H396     H      0.859310000000     0.962360000000     0.639490000000     0.0334832  
H397     H      0.609310000000     0.962350000000     0.639510000000     0.0327844  
H398     H      0.609430000000     0.563080000000     0.639610000000     0.0332428  
H399     H      0.666170000000     0.562960000000     0.639490000000     0.0334832  
H400     H      0.666050000000     0.962230000000     0.639630000000     0.0325797  
H401     H      0.762720000000     0.813210000000     0.485660000000     0.0334748  
H402     H      0.762790000000     0.712480000000     0.485660000000     0.0333487  
H403     H      0.762710000000     0.712470000000     0.542550000000     0.0333178  
H404     H      0.762780000000     0.813210000000     0.542560000000     0.0334915  
H405     H      0.762710000000     0.563030000000     0.485670000000     0.0333435  
H406     H      0.762800000000     0.962300000000     0.485660000000     0.0329667  
H407     H      0.762700000000     0.962300000000     0.542560000000     0.0329367  
H408     H      0.762790000000     0.563030000000     0.542560000000     0.0333569  
H409     H      0.012800000000     0.813210000000     0.485660000000     0.0324766  
H410     H      0.512730000000     0.712480000000     0.485660000000     0.0332313  
H411     H      0.512790000000     0.712480000000     0.542550000000     0.0332038  
H412     H      0.012720000000     0.813210000000     0.542560000000     0.0325104  
H413     H      0.916000000000     0.811720000000     0.391030000000     0.034578   
H414     H      0.916270000000     0.711090000000     0.386480000000     0.0343875  
H415     H      0.859270000000     0.711090000000     0.386480000000     0.0335667  
H416     H      0.859530000000     0.811720000000     0.391030000000     0.0338975  
H417     H      0.609270000000     0.814590000000     0.386460000000     0.033344   
H418     H      0.609530000000     0.713960000000     0.391040000000     0.0333272  
H419     H      0.666000000000     0.713960000000     0.391040000000     0.0333693  
H420     H      0.666270000000     0.814590000000     0.386460000000     0.033297   
H421     H      0.012720000000     0.563030000000     0.485670000000     0.0323573  
H422     H      0.512810000000     0.962310000000     0.485660000000     0.0328394  
H423     H      0.512710000000     0.962300000000     0.542560000000     0.0328126  
H424     H      0.012800000000     0.563030000000     0.542560000000     0.0323497  
H425     H      0.916200000000     0.962380000000     0.388710000000     0.0338789  
H426     H      0.916080000000     0.563110000000     0.388630000000     0.03443    
H427     H      0.859330000000     0.562990000000     0.388750000000     0.0338837  
H428     H      0.859460000000     0.962260000000     0.388590000000     0.0329619  
H429     H      0.609460000000     0.962270000000     0.388600000000     0.0328887  
H430     H      0.609330000000     0.562990000000     0.388720000000     0.0331977  
H431     H      0.666080000000     0.563110000000     0.388600000000     0.0329484  
H432     H      0.666200000000     0.962390000000     0.388720000000     0.0330855  
H433     H      0.799470000000     0.728450000000     0.792870000000     0.0303881  
H434     H      0.726030000000     0.797080000000     0.792900000000     0.0304318  
H435     H      0.727730000000     0.798840000000     0.735340000000     0.0304435  
H436     H      0.797770000000     0.726740000000     0.735310000000     0.0304473  
H437     H      0.726350000000     0.547350000000     0.792890000000     0.0304181  
H438     H      0.799140000000     0.978040000000     0.792900000000     0.031286   
H439     H      0.797400000000     0.976280000000     0.735330000000     0.0308891  
H440     H      0.728080000000     0.549070000000     0.735320000000     0.0303927  
H441     H      0.813180000000     0.859420000000     0.888630000000     0.0338227  
H442     H      0.712450000000     0.859300000000     0.888740000000     0.0335882  
H443     H      0.712330000000     0.916040000000     0.888630000000     0.0341002  
H444     H      0.813060000000     0.916160000000     0.888750000000     0.0347472  
H445     H      0.712460000000     0.609300000000     0.888710000000     0.0334974  
H446     H      0.813190000000     0.609420000000     0.888570000000     0.033091   
H447     H      0.813070000000     0.666170000000     0.888690000000     0.0333062  
H448     H      0.712340000000     0.666040000000     0.888600000000     0.0332158  
H449     H      0.976340000000     0.728090000000     0.792860000000     0.0305561  
H450     H      0.549100000000     0.797440000000     0.792900000000     0.0304439  
H451     H      0.547400000000     0.799170000000     0.735350000000     0.030429   
H452     H      0.978040000000     0.726410000000     0.735320000000     0.030924   
H453     H      0.976660000000     0.547700000000     0.792880000000     0.0305441  
H454     H      0.548770000000     0.977670000000     0.792910000000     0.0309949  
H455     H      0.547040000000     0.975950000000     0.735350000000     0.0305346  
H456     H      0.978400000000     0.549390000000     0.735320000000     0.0309343  
H457     H      0.561590000000     0.915960000000     0.891070000000     0.0345162  
H458     H      0.960970000000     0.916220000000     0.886490000000     0.0339937  
H459     H      0.960970000000     0.859220000000     0.886490000000     0.0332585  
H460     H      0.561590000000     0.859490000000     0.891070000000     0.0337335  
H461     H      0.564470000000     0.609220000000     0.886450000000     0.0331314  
H462     H      0.963840000000     0.609490000000     0.891010000000     0.0329211  
H463     H      0.963840000000     0.665960000000     0.891010000000     0.0328909  
H464     H      0.564470000000     0.666220000000     0.886450000000     0.0331825  
H465     H      0.799500000000     0.797120000000     0.235320000000     0.0305266  
H466     H      0.726050000000     0.728490000000     0.235340000000     0.0302636  
H467     H      0.727750000000     0.726770000000     0.292900000000     0.0303142  
H468     H      0.797790000000     0.798870000000     0.292880000000     0.0306144  
H469     H      0.712410000000     0.762780000000     0.042560000000     0.0333536  
H470     H      0.813130000000     0.762690000000     0.042550000000     0.0334967  
H471     H      0.813130000000     0.762760000000     0.985660000000     0.0334358  
H472     H      0.712400000000     0.762670000000     0.985660000000     0.0333388  
H473     H      0.726380000000     0.978070000000     0.235310000000     0.0311184  
H474     H      0.799170000000     0.547390000000     0.235340000000     0.0305698  
H475     H      0.797440000000     0.549100000000     0.292910000000     0.0305727  
H476     H      0.728120000000     0.976310000000     0.292880000000     0.0307046  
H477     H      0.712410000000     0.512820000000     0.042560000000     0.0332027  
H478     H      0.813130000000     0.012730000000     0.042560000000     0.0325183  
H479     H      0.813130000000     0.012810000000     0.985660000000     0.0324337  
H480     H      0.712400000000     0.512720000000     0.985670000000     0.0332027  
H481     H      0.712470000000     0.916200000000     0.139470000000     0.0345891  
H482     H      0.813210000000     0.916080000000     0.139600000000     0.0342343  
H483     H      0.813090000000     0.859330000000     0.139480000000     0.0337032  
H484     H      0.712350000000     0.859460000000     0.139580000000     0.0335988  
H485     H      0.813190000000     0.666070000000     0.139630000000     0.0333979  
H486     H      0.712460000000     0.666200000000     0.139530000000     0.0331789  
H487     H      0.712340000000     0.609450000000     0.139650000000     0.0329128  
H488     H      0.813080000000     0.609330000000     0.139510000000     0.0336282  
H489     H      0.976370000000     0.797470000000     0.235330000000     0.0306717  
H490     H      0.549140000000     0.728120000000     0.235340000000     0.0303008  
H491     H      0.547450000000     0.726440000000     0.292890000000     0.0302707  
H492     H      0.978090000000     0.799200000000     0.292880000000     0.0311283  
H493     H      0.962350000000     0.762740000000     0.985670000000     0.032954   
H494     H      0.563080000000     0.762670000000     0.985660000000     0.033337   
H495     H      0.563090000000     0.762750000000     0.042550000000     0.0333491  
H496     H      0.962360000000     0.762690000000     0.042560000000     0.0329303  
H497     H      0.976700000000     0.977710000000     0.235320000000     0.0312629  
H498     H      0.548800000000     0.547740000000     0.235330000000     0.0302934  
H499     H      0.547080000000     0.549430000000     0.292890000000     0.0302215  
H500     H      0.978450000000     0.975980000000     0.292880000000     0.0312255  
H501     H      0.962360000000     0.012800000000     0.042560000000     0.0319257  
H502     H      0.563090000000     0.512730000000     0.042550000000     0.0332228  
H503     H      0.563080000000     0.512790000000     0.985660000000     0.0332093  
H504     H      0.962350000000     0.012720000000     0.985670000000     0.0319558  
H505     H      0.963860000000     0.915990000000     0.137160000000     0.0340749  
H506     H      0.564490000000     0.916250000000     0.141730000000     0.0342955  
H507     H      0.564490000000     0.859250000000     0.141720000000     0.0335834  
H508     H      0.963860000000     0.859520000000     0.137160000000     0.0332977  
H509     H      0.960990000000     0.666260000000     0.141780000000     0.03289    
H510     H      0.561610000000     0.665990000000     0.137200000000     0.0333458  
H511     H      0.561610000000     0.609520000000     0.137200000000     0.0333812  
H512     H      0.960990000000     0.609260000000     0.141780000000     0.032809   
N1       N      0.420630000000     0.264270000000     0.639450000000    -0.189583   
N2       N      0.354850000000     0.264270000000     0.639460000000    -0.189575   
N3       N      0.104850000000     0.261360000000     0.639470000000    -0.189383   
N4       N      0.170630000000     0.261360000000     0.639470000000    -0.189502   
N5       N      0.420620000000     0.012580000000     0.639520000000    -0.192579   
N6       N      0.354850000000     0.512760000000     0.639530000000    -0.189741   
N7       N      0.104850000000     0.012750000000     0.639540000000    -0.192537   
N8       N      0.170620000000     0.512570000000     0.639540000000    -0.189656   
N9       N      0.262760000000     0.262840000000     0.481130000000    -0.189587   
N10      N      0.262740000000     0.262840000000     0.547080000000    -0.189379   
N11      N      0.262750000000     0.012670000000     0.481130000000    -0.192509   
N12      N      0.262740000000     0.012660000000     0.547090000000    -0.19258    
N13      N      0.012760000000     0.262850000000     0.481130000000    -0.189739   
N14      N      0.512760000000     0.262840000000     0.547080000000    -0.189468   
N15      N      0.420660000000     0.261390000000     0.388760000000    -0.189652   
N16      N      0.354880000000     0.261390000000     0.388760000000    -0.189557   
N17      N      0.104880000000     0.264290000000     0.388760000000    -0.189472   
N18      N      0.170660000000     0.264300000000     0.388750000000    -0.189638   
N19      N      0.012770000000     0.512670000000     0.481130000000    -0.189676   
N20      N      0.012750000000     0.512660000000     0.547090000000    -0.18974    
N21      N      0.420650000000     0.012770000000     0.388700000000    -0.192589   
N22      N      0.354880000000     0.012590000000     0.388700000000    -0.192712   
N23      N      0.104880000000     0.012600000000     0.388690000000    -0.192543   
N24      N      0.170650000000     0.012780000000     0.388680000000    -0.192585   
N25      N      0.262750000000     0.262760000000     0.796820000000    -0.190818   
N26      N      0.262750000000     0.262790000000     0.731390000000    -0.190847   
N27      N      0.262750000000     0.012700000000     0.796820000000    -0.195188   
N28      N      0.262740000000     0.012680000000     0.731400000000    -0.193831   
N29      N      0.262840000000     0.354850000000     0.888710000000    -0.189634   
N30      N      0.262660000000     0.420620000000     0.888710000000    -0.189746   
N31      N      0.262850000000     0.104850000000     0.888660000000    -0.189431   
N32      N      0.262670000000     0.170620000000     0.888670000000    -0.189681   
N33      N      0.512720000000     0.262760000000     0.796830000000    -0.190792   
N34      N      0.512720000000     0.262790000000     0.731390000000    -0.19078    
N35      N      0.012710000000     0.012690000000     0.796830000000    -0.198102   
N36      N      0.012720000000     0.512670000000     0.731400000000    -0.195203   
N37      N      0.011260000000     0.420610000000     0.888780000000    -0.192538   
N38      N      0.011260000000     0.354830000000     0.888780000000    -0.192621   
N39      N      0.014170000000     0.104830000000     0.888730000000    -0.192554   
N40      N      0.014170000000     0.170610000000     0.888730000000    -0.192605   
N41      N      0.262770000000     0.262800000000     0.231400000000    -0.190832   
N42      N      0.262770000000     0.262830000000     0.296830000000    -0.190883   
N43      N      0.262770000000     0.262730000000     0.047080000000    -0.189472   
N44      N      0.262770000000     0.262720000000     0.981130000000    -0.189607   
N45      N      0.262780000000     0.012730000000     0.231400000000    -0.19525    
N46      N      0.262780000000     0.012710000000     0.296820000000    -0.19371    
N47      N      0.262770000000     0.012780000000     0.047090000000    -0.189707   
N48      N      0.262770000000     0.012760000000     0.981130000000    -0.18975    
N49      N      0.262870000000     0.420650000000     0.139510000000    -0.189743   
N50      N      0.262690000000     0.354880000000     0.139510000000    -0.189682   
N51      N      0.262860000000     0.170650000000     0.139550000000    -0.189681   
N52      N      0.262680000000     0.104880000000     0.139550000000    -0.18962    
N53      N      0.012750000000     0.262790000000     0.231390000000    -0.193677   
N54      N      0.012770000000     0.262820000000     0.296830000000    -0.195228   
N55      N      0.512720000000     0.262710000000     0.981130000000    -0.189578   
N56      N      0.012720000000     0.262720000000     0.047080000000    -0.192437   
N57      N      0.012750000000     0.012730000000     0.231390000000    -0.198142   
N58      N      0.012760000000     0.512710000000     0.296820000000    -0.195193   
N59      N      0.012730000000     0.012770000000     0.047090000000    -0.192715   
N60      N      0.012720000000     0.012750000000     0.981140000000    -0.192608   
N61      N      0.514190000000     0.420640000000     0.139440000000    -0.189595   
N62      N      0.514190000000     0.354870000000     0.139440000000    -0.189588   
N63      N      0.511280000000     0.170640000000     0.139490000000    -0.189567   
N64      N      0.511280000000     0.104870000000     0.139480000000    -0.189429   
N65      N      0.420630000000     0.764270000000     0.639450000000    -0.189583   
N66      N      0.354850000000     0.764270000000     0.639460000000    -0.189575   
N67      N      0.104850000000     0.761370000000     0.639470000000    -0.189449   
N68      N      0.170630000000     0.761360000000     0.639470000000    -0.189501   
N69      N      0.420620000000     0.512580000000     0.639520000000    -0.189598   
N70      N      0.354850000000     0.012760000000     0.639530000000    -0.192743   
N71      N      0.104850000000     0.512750000000     0.639540000000    -0.189555   
N72      N      0.170620000000     0.012570000000     0.639540000000    -0.19265    
N73      N      0.262760000000     0.762850000000     0.481130000000    -0.18957    
N74      N      0.262740000000     0.762840000000     0.547080000000    -0.189489   
N75      N      0.262750000000     0.512670000000     0.481130000000    -0.18952    
N76      N      0.262740000000     0.512660000000     0.547090000000    -0.18959    
N77      N      0.012760000000     0.762850000000     0.481130000000    -0.189724   
N78      N      0.512760000000     0.762840000000     0.547080000000    -0.189505   
N79      N      0.420660000000     0.761390000000     0.388760000000    -0.189651   
N80      N      0.354880000000     0.761390000000     0.388760000000    -0.189555   
N81      N      0.104880000000     0.764290000000     0.388760000000    -0.189458   
N82      N      0.170660000000     0.764290000000     0.388750000000    -0.18967    
N83      N      0.012770000000     0.012670000000     0.481130000000    -0.192718   
N84      N      0.012750000000     0.012660000000     0.547090000000    -0.192725   
N85      N      0.420650000000     0.512770000000     0.388700000000    -0.189595   
N86      N      0.354880000000     0.512590000000     0.388700000000    -0.189729   
N87      N      0.104880000000     0.512600000000     0.388690000000    -0.189551   
N88      N      0.170650000000     0.512780000000     0.388680000000    -0.189662   
N89      N      0.262750000000     0.762760000000     0.796820000000    -0.190804   
N90      N      0.262750000000     0.762790000000     0.731390000000    -0.190842   
N91      N      0.262750000000     0.512700000000     0.796820000000    -0.190854   
N92      N      0.262740000000     0.512680000000     0.731400000000    -0.19086    
N93      N      0.262840000000     0.854850000000     0.888710000000    -0.189504   
N94      N      0.262660000000     0.920620000000     0.888710000000    -0.188978   
N95      N      0.262850000000     0.604850000000     0.888660000000    -0.189558   
N96      N      0.262670000000     0.670620000000     0.888670000000    -0.189703   
N97      N      0.512720000000     0.762760000000     0.796830000000    -0.190777   
N98      N      0.512720000000     0.762790000000     0.731390000000    -0.190799   
N99      N      0.012720000000     0.512690000000     0.796830000000    -0.193758   
N100     N      0.012720000000     0.012670000000     0.731400000000    -0.198071   
N101     N      0.011260000000     0.920610000000     0.888780000000    -0.191811   
N102     N      0.011260000000     0.854830000000     0.888780000000    -0.19256    
N103     N      0.014170000000     0.604830000000     0.888730000000    -0.192606   
N104     N      0.014170000000     0.670610000000     0.888730000000    -0.192617   
N105     N      0.262770000000     0.762800000000     0.231400000000    -0.190827   
N106     N      0.262770000000     0.762820000000     0.296830000000    -0.19081    
N107     N      0.262770000000     0.762730000000     0.047090000000    -0.189527   
N108     N      0.262770000000     0.762720000000     0.981130000000    -0.189578   
N109     N      0.262780000000     0.512730000000     0.231400000000    -0.190892   
N110     N      0.262780000000     0.512710000000     0.296820000000    -0.190824   
N111     N      0.262770000000     0.512780000000     0.047090000000    -0.189566   
N112     N      0.262770000000     0.512760000000     0.981130000000    -0.189609   
N113     N      0.262870000000     0.920650000000     0.139510000000    -0.18902    
N114     N      0.262690000000     0.854880000000     0.139510000000    -0.189625   
N115     N      0.262860000000     0.670650000000     0.139550000000    -0.189687   
N116     N      0.262680000000     0.604880000000     0.139550000000    -0.18975    
N117     N      0.012750000000     0.762790000000     0.231390000000    -0.193676   
N118     N      0.012770000000     0.762820000000     0.296830000000    -0.195145   
N119     N      0.512720000000     0.762710000000     0.981130000000    -0.189552   
N120     N      0.012720000000     0.762720000000     0.047080000000    -0.192405   
N121     N      0.012750000000     0.512730000000     0.231390000000    -0.193808   
N122     N      0.012760000000     0.012710000000     0.296820000000    -0.198055   
N123     N      0.012730000000     0.512760000000     0.047090000000    -0.192585   
N124     N      0.012720000000     0.512750000000     0.981140000000    -0.192475   
N125     N      0.514190000000     0.920640000000     0.139440000000    -0.188875   
N126     N      0.514190000000     0.854870000000     0.139440000000    -0.189533   
N127     N      0.511280000000     0.670640000000     0.139490000000    -0.189572   
N128     N      0.511280000000     0.604860000000     0.139480000000    -0.189656   
N129     N      0.920630000000     0.264270000000     0.639450000000    -0.188857   
N130     N      0.854850000000     0.264270000000     0.639460000000    -0.189521   
N131     N      0.604850000000     0.261360000000     0.639470000000    -0.189512   
N132     N      0.670630000000     0.261360000000     0.639470000000    -0.189506   
N133     N      0.920620000000     0.012580000000     0.639520000000    -0.191847   
N134     N      0.854850000000     0.512760000000     0.639530000000    -0.189674   
N135     N      0.604860000000     0.012750000000     0.639540000000    -0.192591   
N136     N      0.670620000000     0.512570000000     0.639540000000    -0.189661   
N137     N      0.762760000000     0.262840000000     0.481130000000    -0.189557   
N138     N      0.762740000000     0.262840000000     0.547080000000    -0.18935    
N139     N      0.762750000000     0.012670000000     0.481130000000    -0.192479   
N140     N      0.762740000000     0.012660000000     0.547090000000    -0.192553   
N141     N      0.512760000000     0.262850000000     0.481130000000    -0.189595   
N142     N      0.012750000000     0.262840000000     0.547080000000    -0.18961    
N143     N      0.920660000000     0.261390000000     0.388760000000    -0.188911   
N144     N      0.854880000000     0.261390000000     0.388760000000    -0.189505   
N145     N      0.604880000000     0.264290000000     0.388760000000    -0.189601   
N146     N      0.670660000000     0.264300000000     0.388750000000    -0.18956    
N147     N      0.512760000000     0.512670000000     0.481130000000    -0.189535   
N148     N      0.512750000000     0.512660000000     0.547090000000    -0.189597   
N149     N      0.920650000000     0.012770000000     0.388700000000    -0.191945   
N150     N      0.854880000000     0.012590000000     0.388700000000    -0.192662   
N151     N      0.604880000000     0.012600000000     0.388690000000    -0.192683   
N152     N      0.670650000000     0.012780000000     0.388680000000    -0.192592   
N153     N      0.762750000000     0.262760000000     0.796820000000    -0.190812   
N154     N      0.762750000000     0.262790000000     0.731390000000    -0.190835   
N155     N      0.762750000000     0.012700000000     0.796820000000    -0.195155   
N156     N      0.762740000000     0.012680000000     0.731400000000    -0.19383    
N157     N      0.762840000000     0.354850000000     0.888710000000    -0.189634   
N158     N      0.762660000000     0.420620000000     0.888710000000    -0.189745   
N159     N      0.762860000000     0.104850000000     0.888660000000    -0.189428   
N160     N      0.762670000000     0.170620000000     0.888670000000    -0.189745   
N161     N      0.012720000000     0.262760000000     0.796830000000    -0.193732   
N162     N      0.012720000000     0.262790000000     0.731390000000    -0.195164   
N163     N      0.512720000000     0.012690000000     0.796830000000    -0.19525    
N164     N      0.512720000000     0.512670000000     0.731400000000    -0.19084    
N165     N      0.511260000000     0.420610000000     0.888780000000    -0.18956    
N166     N      0.511260000000     0.354830000000     0.888780000000    -0.189651   
N167     N      0.514170000000     0.104830000000     0.888730000000    -0.189566   
N168     N      0.514170000000     0.170610000000     0.888730000000    -0.189571   
N169     N      0.762770000000     0.262800000000     0.231400000000    -0.190819   
N170     N      0.762770000000     0.262830000000     0.296830000000    -0.190895   
N171     N      0.762770000000     0.262730000000     0.047080000000    -0.189468   
N172     N      0.762770000000     0.262720000000     0.981130000000    -0.189612   
N173     N      0.762780000000     0.012730000000     0.231400000000    -0.195241   
N174     N      0.762780000000     0.012710000000     0.296820000000    -0.193706   
N175     N      0.762770000000     0.012780000000     0.047090000000    -0.189702   
N176     N      0.762770000000     0.012760000000     0.981130000000    -0.189754   
N177     N      0.762870000000     0.420650000000     0.139510000000    -0.189681   
N178     N      0.762690000000     0.354880000000     0.139510000000    -0.189687   
N179     N      0.762860000000     0.170650000000     0.139550000000    -0.189678   
N180     N      0.762680000000     0.104880000000     0.139550000000    -0.189623   
N181     N      0.512750000000     0.262790000000     0.231390000000    -0.190816   
N182     N      0.512770000000     0.262820000000     0.296830000000    -0.19086    
N183     N      0.012720000000     0.262710000000     0.981130000000    -0.192549   
N184     N      0.512720000000     0.262720000000     0.047080000000    -0.189416   
N185     N      0.512750000000     0.012730000000     0.231390000000    -0.195289   
N186     N      0.512760000000     0.512710000000     0.296820000000    -0.190836   
N187     N      0.512720000000     0.012770000000     0.047090000000    -0.189681   
N188     N      0.512720000000     0.012750000000     0.981140000000    -0.189624   
N189     N      0.014190000000     0.420640000000     0.139440000000    -0.192575   
N190     N      0.014190000000     0.354870000000     0.139440000000    -0.192565   
N191     N      0.011280000000     0.170640000000     0.139490000000    -0.192535   
N192     N      0.011280000000     0.104870000000     0.139480000000    -0.1924     
N193     N      0.920630000000     0.764270000000     0.639450000000    -0.188857   
N194     N      0.854850000000     0.764270000000     0.639460000000    -0.189521   
N195     N      0.604850000000     0.761370000000     0.639470000000    -0.189578   
N196     N      0.670630000000     0.761360000000     0.639470000000    -0.189504   
N197     N      0.920620000000     0.512580000000     0.639520000000    -0.188868   
N198     N      0.854850000000     0.012760000000     0.639530000000    -0.192667   
N199     N      0.604860000000     0.512750000000     0.639540000000    -0.189589   
N200     N      0.670620000000     0.012570000000     0.639540000000    -0.192658   
N201     N      0.762760000000     0.762850000000     0.481130000000    -0.189541   
N202     N      0.762740000000     0.762840000000     0.547080000000    -0.189461   
N203     N      0.762750000000     0.512670000000     0.481130000000    -0.189491   
N204     N      0.762740000000     0.512660000000     0.547090000000    -0.189561   
N205     N      0.512760000000     0.762850000000     0.481130000000    -0.18958    
N206     N      0.012750000000     0.762840000000     0.547080000000    -0.189648   
N207     N      0.920660000000     0.761390000000     0.388760000000    -0.188911   
N208     N      0.854880000000     0.761390000000     0.388760000000    -0.189503   
N209     N      0.604880000000     0.764290000000     0.388760000000    -0.189587   
N210     N      0.670660000000     0.764290000000     0.388750000000    -0.189592   
N211     N      0.512770000000     0.012670000000     0.481130000000    -0.192585   
N212     N      0.512760000000     0.012660000000     0.547090000000    -0.192591   
N213     N      0.920650000000     0.512770000000     0.388700000000    -0.188957   
N214     N      0.854880000000     0.512590000000     0.388700000000    -0.189684   
N215     N      0.604880000000     0.512600000000     0.388690000000    -0.189688   
N216     N      0.670650000000     0.512780000000     0.388680000000    -0.189666   
N217     N      0.762750000000     0.762760000000     0.796820000000    -0.190798   
N218     N      0.762750000000     0.762790000000     0.731390000000    -0.19083    
N219     N      0.762750000000     0.512700000000     0.796820000000    -0.190825   
N220     N      0.762740000000     0.512680000000     0.731400000000    -0.190858   
N221     N      0.762840000000     0.854850000000     0.888710000000    -0.189493   
N222     N      0.762660000000     0.920620000000     0.888710000000    -0.189011   
N223     N      0.762860000000     0.604850000000     0.888660000000    -0.189556   
N224     N      0.762670000000     0.670620000000     0.888670000000    -0.189768   
N225     N      0.012720000000     0.762760000000     0.796830000000    -0.193717   
N226     N      0.012720000000     0.762790000000     0.731390000000    -0.195169   
N227     N      0.512720000000     0.512690000000     0.796830000000    -0.190875   
N228     N      0.512720000000     0.012670000000     0.731400000000    -0.193725   
N229     N      0.511260000000     0.920610000000     0.888780000000    -0.188839   
N230     N      0.511260000000     0.854830000000     0.888780000000    -0.18959    
N231     N      0.514170000000     0.604830000000     0.888730000000    -0.189614   
N232     N      0.514170000000     0.670610000000     0.888730000000    -0.18958    
N233     N      0.762770000000     0.762800000000     0.231400000000    -0.190822   
N234     N      0.762770000000     0.762820000000     0.296830000000    -0.190797   
N235     N      0.762770000000     0.762730000000     0.047090000000    -0.189524   
N236     N      0.762770000000     0.762720000000     0.981130000000    -0.189583   
N237     N      0.762780000000     0.512730000000     0.231400000000    -0.190884   
N238     N      0.762780000000     0.512710000000     0.296820000000    -0.190821   
N239     N      0.762770000000     0.512780000000     0.047090000000    -0.189561   
N240     N      0.762770000000     0.512760000000     0.981130000000    -0.189612   
N241     N      0.762870000000     0.920650000000     0.139510000000    -0.188959   
N242     N      0.762690000000     0.854880000000     0.139510000000    -0.18963    
N243     N      0.762860000000     0.670650000000     0.139550000000    -0.189684   
N244     N      0.762680000000     0.604880000000     0.139550000000    -0.189753   
N245     N      0.512750000000     0.762790000000     0.231390000000    -0.190793   
N246     N      0.512770000000     0.762820000000     0.296830000000    -0.190786   
N247     N      0.012720000000     0.762710000000     0.981130000000    -0.192522   
N248     N      0.512720000000     0.762720000000     0.047080000000    -0.189385   
N249     N      0.512750000000     0.512730000000     0.231390000000    -0.190923   
N250     N      0.512760000000     0.012710000000     0.296820000000    -0.193722   
N251     N      0.512720000000     0.512760000000     0.047090000000    -0.189542   
N252     N      0.512720000000     0.512750000000     0.981140000000    -0.189481   
N253     N      0.014190000000     0.920640000000     0.139440000000    -0.191849   
N254     N      0.014190000000     0.854870000000     0.139440000000    -0.192505   
N255     N      0.011280000000     0.670640000000     0.139490000000    -0.192543   
N256     N      0.011280000000     0.604860000000     0.139480000000    -0.192628   
O1       O      0.039860000000     0.468530000000     0.140640000000    -0.550814   
O2       O      0.038090000000     0.057910000000     0.138260000000    -0.553064   
O3       O      0.038950000000     0.515170000000     0.184260000000    -0.552101   
O4       O      0.039000000000     0.012200000000     0.094630000000    -0.552682   
O5       O      0.486460000000     0.513330000000     0.094640000000    -0.555498   
O6       O      0.486530000000     0.010320000000     0.184270000000    -0.556597   
O7       O      0.485610000000     0.056980000000     0.140670000000    -0.551828   
O8       O      0.487380000000     0.467600000000     0.138240000000    -0.557883   
O9       O      0.039860000000     0.306990000000     0.140620000000    -0.550593   
O10      O      0.038090000000     0.217600000000     0.138260000000    -0.554793   
O11      O      0.039000000000     0.263300000000     0.094620000000    -0.5524     
O12      O      0.038960000000     0.260360000000     0.184260000000    -0.552066   
O13      O      0.486530000000     0.265190000000     0.184260000000    -0.555004   
O14      O      0.486460000000     0.262180000000     0.094630000000    -0.555526   
O15      O      0.485610000000     0.218520000000     0.140660000000    -0.553441   
O16      O      0.487380000000     0.307910000000     0.138240000000    -0.557745   
O17      O      0.236590000000     0.467920000000     0.138440000000    -0.557319   
O18      O      0.236460000000     0.057330000000     0.140490000000    -0.552905   
O19      O      0.236510000000     0.513530000000     0.094640000000    -0.555771   
O20      O      0.236520000000     0.010820000000     0.184280000000    -0.556375   
O21      O      0.289030000000     0.514690000000     0.184280000000    -0.555016   
O22      O      0.289030000000     0.012020000000     0.094630000000    -0.555691   
O23      O      0.288960000000     0.057610000000     0.138460000000    -0.555615   
O24      O      0.289090000000     0.468200000000     0.140470000000    -0.554466   
O25      O      0.289030000000     0.262000000000     0.094630000000    -0.555663   
O26      O      0.289030000000     0.264700000000     0.184270000000    -0.55518    
O27      O      0.289090000000     0.218200000000     0.140480000000    -0.554432   
O28      O      0.288970000000     0.307600000000     0.138440000000    -0.557248   
O29      O      0.236460000000     0.307340000000     0.140450000000    -0.554349   
O30      O      0.236580000000     0.217930000000     0.138470000000    -0.557193   
O31      O      0.236520000000     0.260860000000     0.184270000000    -0.555291   
O32      O      0.236510000000     0.263500000000     0.094630000000    -0.555657   
O33      O      0.038980000000     0.513300000000     0.933590000000    -0.552695   
O34      O      0.038930000000     0.010280000000     0.843950000000    -0.553316   
O35      O      0.039840000000     0.056950000000     0.887550000000    -0.549035   
O36      O      0.038070000000     0.467570000000     0.889990000000    -0.554921   
O37      O      0.485590000000     0.468490000000     0.887580000000    -0.553448   
O38      O      0.487360000000     0.057880000000     0.889960000000    -0.556012   
O39      O      0.486500000000     0.515130000000     0.843950000000    -0.554766   
O40      O      0.486450000000     0.012170000000     0.933590000000    -0.555631   
O41      O      0.038980000000     0.262150000000     0.933590000000    -0.552745   
O42      O      0.038930000000     0.265150000000     0.843960000000    -0.55217    
O43      O      0.038070000000     0.307880000000     0.889980000000    -0.55479    
O44      O      0.039840000000     0.218490000000     0.887560000000    -0.550644   
O45      O      0.487360000000     0.217570000000     0.889950000000    -0.558007   
O46      O      0.485590000000     0.306950000000     0.887590000000    -0.553455   
O47      O      0.486500000000     0.260320000000     0.843960000000    -0.555066   
O48      O      0.486450000000     0.263270000000     0.933590000000    -0.555692   
O49      O      0.288940000000     0.467890000000     0.889790000000    -0.55729    
O50      O      0.289080000000     0.057300000000     0.887720000000    -0.552831   
O51      O      0.289020000000     0.513500000000     0.933580000000    -0.555742   
O52      O      0.289010000000     0.010780000000     0.843940000000    -0.556416   
O53      O      0.236500000000     0.514650000000     0.843940000000    -0.555166   
O54      O      0.236500000000     0.011990000000     0.933590000000    -0.555735   
O55      O      0.236570000000     0.057570000000     0.889760000000    -0.555497   
O56      O      0.236440000000     0.468170000000     0.887760000000    -0.554671   
O57      O      0.236560000000     0.307570000000     0.889780000000    -0.557173   
O58      O      0.236440000000     0.218160000000     0.887740000000    -0.554249   
O59      O      0.236500000000     0.261970000000     0.933590000000    -0.555689   
O60      O      0.236500000000     0.264660000000     0.843950000000    -0.55532    
O61      O      0.289010000000     0.260830000000     0.843940000000    -0.555041   
O62      O      0.289020000000     0.263470000000     0.933590000000    -0.555633   
O63      O      0.288950000000     0.217890000000     0.889750000000    -0.557221   
O64      O      0.289070000000     0.307300000000     0.887760000000    -0.554353   
O65      O      0.514680000000     0.038950000000     0.343950000000    -0.552108   
O66      O      0.012020000000     0.038940000000     0.433590000000    -0.552772   
O67      O      0.057610000000     0.038880000000     0.389770000000    -0.552392   
O68      O      0.468200000000     0.039000000000     0.387760000000    -0.55137    
O69      O      0.467930000000     0.486490000000     0.389770000000    -0.557239   
O70      O      0.057340000000     0.486370000000     0.387750000000    -0.552623   
O71      O      0.513520000000     0.486410000000     0.433580000000    -0.55567    
O72      O      0.010850000000     0.486440000000     0.343940000000    -0.556548   
O73      O      0.467610000000     0.288200000000     0.389960000000    -0.557672   
O74      O      0.057000000000     0.289960000000     0.387570000000    -0.55198    
O75      O      0.510350000000     0.289040000000     0.343950000000    -0.555201   
O76      O      0.013330000000     0.289110000000     0.433590000000    -0.555381   
O77      O      0.512210000000     0.236580000000     0.433590000000    -0.555784   
O78      O      0.015180000000     0.236620000000     0.343960000000    -0.555614   
O79      O      0.057920000000     0.237480000000     0.389970000000    -0.556303   
O80      O      0.468540000000     0.235720000000     0.387580000000    -0.553559   
O81      O      0.263520000000     0.486410000000     0.433580000000    -0.555501   
O82      O      0.260830000000     0.486440000000     0.343930000000    -0.555039   
O83      O      0.307330000000     0.486370000000     0.387740000000    -0.554666   
O84      O      0.217930000000     0.486500000000     0.389760000000    -0.557321   
O85      O      0.218200000000     0.039010000000     0.387740000000    -0.551384   
O86      O      0.307610000000     0.038870000000     0.389780000000    -0.554203   
O87      O      0.264710000000     0.038950000000     0.343950000000    -0.552021   
O88      O      0.262010000000     0.038940000000     0.433590000000    -0.552575   
O89      O      0.262200000000     0.289110000000     0.433580000000    -0.555541   
O90      O      0.265200000000     0.289040000000     0.343950000000    -0.555117   
O91      O      0.218540000000     0.289960000000     0.387560000000    -0.553555   
O92      O      0.307920000000     0.288200000000     0.389970000000    -0.557876   
O93      O      0.307000000000     0.235720000000     0.387570000000    -0.553577   
O94      O      0.217610000000     0.237480000000     0.389970000000    -0.557671   
O95      O      0.260340000000     0.236620000000     0.343960000000    -0.555038   
O96      O      0.263330000000     0.236580000000     0.433590000000    -0.555676   
O97      O      0.513500000000     0.038920000000     0.594630000000    -0.552673   
O98      O      0.010810000000     0.038920000000     0.684270000000    -0.553711   
O99      O      0.057310000000     0.038980000000     0.640470000000    -0.549845   
O100     O      0.467900000000     0.038860000000     0.638450000000    -0.554172   
O101     O      0.468170000000     0.486350000000     0.640470000000    -0.554431   
O102     O      0.057580000000     0.486470000000     0.638460000000    -0.555602   
O103     O      0.514650000000     0.486410000000     0.684280000000    -0.555023   
O104     O      0.011990000000     0.486400000000     0.594630000000    -0.55571    
O105     O      0.013310000000     0.236570000000     0.594620000000    -0.555747   
O106     O      0.510320000000     0.236590000000     0.684250000000    -0.555097   
O107     O      0.467590000000     0.237460000000     0.638240000000    -0.557948   
O108     O      0.056970000000     0.235690000000     0.640640000000    -0.551821   
O109     O      0.057890000000     0.288180000000     0.638260000000    -0.556136   
O110     O      0.468510000000     0.289940000000     0.640640000000    -0.553543   
O111     O      0.015150000000     0.289020000000     0.684270000000    -0.55534    
O112     O      0.512190000000     0.289100000000     0.594630000000    -0.555412   
O113     O      0.264680000000     0.486420000000     0.684280000000    -0.555224   
O114     O      0.261980000000     0.486400000000     0.594640000000    -0.555756   
O115     O      0.307580000000     0.486480000000     0.638450000000    -0.557324   
O116     O      0.218170000000     0.486350000000     0.640480000000    -0.554556   
O117     O      0.217900000000     0.038850000000     0.638450000000    -0.554186   
O118     O      0.307310000000     0.038980000000     0.640480000000    -0.551595   
O119     O      0.263490000000     0.038920000000     0.594630000000    -0.552598   
O120     O      0.260800000000     0.038920000000     0.684280000000    -0.552024   
O121     O      0.218510000000     0.235690000000     0.640650000000    -0.553404   
O122     O      0.307890000000     0.237460000000     0.638240000000    -0.557872   
O123     O      0.265170000000     0.236590000000     0.684260000000    -0.554817   
O124     O      0.262170000000     0.236560000000     0.594630000000    -0.555621   
O125     O      0.263300000000     0.289100000000     0.594640000000    -0.555403   
O126     O      0.260310000000     0.289020000000     0.684270000000    -0.55488    
O127     O      0.306970000000     0.289940000000     0.640660000000    -0.553588   
O128     O      0.217590000000     0.288180000000     0.638250000000    -0.557767   
O129     O      0.039860000000     0.968520000000     0.140640000000    -0.543368   
O130     O      0.038090000000     0.557910000000     0.138260000000    -0.554817   
O131     O      0.038950000000     0.015170000000     0.184260000000    -0.55243    
O132     O      0.039000000000     0.512200000000     0.094630000000    -0.552646   
O133     O      0.486460000000     0.013330000000     0.094640000000    -0.555454   
O134     O      0.486530000000     0.510310000000     0.184270000000    -0.55514    
O135     O      0.485610000000     0.556980000000     0.140670000000    -0.553472   
O136     O      0.487380000000     0.967600000000     0.138240000000    -0.550618   
O137     O      0.039860000000     0.806990000000     0.140630000000    -0.550498   
O138     O      0.038090000000     0.717600000000     0.138260000000    -0.554855   
O139     O      0.039000000000     0.763300000000     0.094630000000    -0.552485   
O140     O      0.038960000000     0.760360000000     0.184260000000    -0.552089   
O141     O      0.486530000000     0.765180000000     0.184260000000    -0.555005   
O142     O      0.486460000000     0.762180000000     0.094630000000    -0.555444   
O143     O      0.485610000000     0.718520000000     0.140660000000    -0.553447   
O144     O      0.487380000000     0.807910000000     0.138240000000    -0.557627   
O145     O      0.236590000000     0.967920000000     0.138440000000    -0.550009   
O146     O      0.236460000000     0.557330000000     0.140490000000    -0.554519   
O147     O      0.236510000000     0.013530000000     0.094640000000    -0.555718   
O148     O      0.236520000000     0.510820000000     0.184280000000    -0.554969   
O149     O      0.289030000000     0.014690000000     0.184280000000    -0.555393   
O150     O      0.289030000000     0.512020000000     0.094630000000    -0.555625   
O151     O      0.288960000000     0.557610000000     0.138460000000    -0.557287   
O152     O      0.289090000000     0.968200000000     0.140470000000    -0.547129   
O153     O      0.289030000000     0.762000000000     0.094630000000    -0.555641   
O154     O      0.289030000000     0.764700000000     0.184270000000    -0.555158   
O155     O      0.289090000000     0.718200000000     0.140480000000    -0.55446    
O156     O      0.288970000000     0.807600000000     0.138440000000    -0.557079   
O157     O      0.236460000000     0.807330000000     0.140450000000    -0.554351   
O158     O      0.236580000000     0.717930000000     0.138470000000    -0.557281   
O159     O      0.236520000000     0.760860000000     0.184270000000    -0.555307   
O160     O      0.236510000000     0.763500000000     0.094630000000    -0.555665   
O161     O      0.038980000000     0.013300000000     0.933590000000    -0.552648   
O162     O      0.038930000000     0.510280000000     0.843950000000    -0.551881   
O163     O      0.039840000000     0.556950000000     0.887550000000    -0.550715   
O164     O      0.038070000000     0.967570000000     0.889990000000    -0.547631   
O165     O      0.485590000000     0.968490000000     0.887580000000    -0.546109   
O166     O      0.487360000000     0.557880000000     0.889960000000    -0.55778    
O167     O      0.486500000000     0.015130000000     0.843950000000    -0.55513    
O168     O      0.486450000000     0.512170000000     0.933590000000    -0.55556    
O169     O      0.038980000000     0.762150000000     0.933590000000    -0.552733   
O170     O      0.038930000000     0.765150000000     0.843960000000    -0.552193   
O171     O      0.038070000000     0.807870000000     0.889980000000    -0.554802   
O172     O      0.039840000000     0.718490000000     0.887560000000    -0.550726   
O173     O      0.487360000000     0.717570000000     0.889950000000    -0.558031   
O174     O      0.485590000000     0.806950000000     0.887590000000    -0.553294   
O175     O      0.486500000000     0.760320000000     0.843960000000    -0.555034   
O176     O      0.486450000000     0.763270000000     0.933590000000    -0.555625   
O177     O      0.288940000000     0.967890000000     0.889790000000    -0.54997    
O178     O      0.289080000000     0.557300000000     0.887720000000    -0.554444   
O179     O      0.289020000000     0.013500000000     0.933580000000    -0.555689   
O180     O      0.289010000000     0.510780000000     0.843940000000    -0.555014   
O181     O      0.236500000000     0.014650000000     0.843940000000    -0.555541   
O182     O      0.236500000000     0.511990000000     0.933590000000    -0.55567    
O183     O      0.236570000000     0.557570000000     0.889760000000    -0.55717    
O184     O      0.236440000000     0.968170000000     0.887760000000    -0.547332   
O185     O      0.236560000000     0.807570000000     0.889780000000    -0.557116   
O186     O      0.236440000000     0.718160000000     0.887740000000    -0.554296   
O187     O      0.236500000000     0.761970000000     0.933590000000    -0.555637   
O188     O      0.236500000000     0.764660000000     0.843950000000    -0.555297   
O189     O      0.289010000000     0.760820000000     0.843940000000    -0.555002   
O190     O      0.289020000000     0.763470000000     0.933590000000    -0.555567   
O191     O      0.288950000000     0.717890000000     0.889750000000    -0.557405   
O192     O      0.289070000000     0.807300000000     0.887760000000    -0.554168   
O193     O      0.514680000000     0.538950000000     0.343950000000    -0.555164   
O194     O      0.012020000000     0.538940000000     0.433590000000    -0.555724   
O195     O      0.057610000000     0.538880000000     0.389770000000    -0.555586   
O196     O      0.468200000000     0.539000000000     0.387760000000    -0.554339   
O197     O      0.467930000000     0.986490000000     0.389770000000    -0.549849   
O198     O      0.057340000000     0.986370000000     0.387750000000    -0.545215   
O199     O      0.513520000000     0.986420000000     0.433580000000    -0.548413   
O200     O      0.010850000000     0.986440000000     0.343940000000    -0.549026   
O201     O      0.467610000000     0.788200000000     0.389960000000    -0.557649   
O202     O      0.057000000000     0.789960000000     0.387570000000    -0.551931   
O203     O      0.510350000000     0.789050000000     0.343950000000    -0.554777   
O204     O      0.013330000000     0.789110000000     0.433590000000    -0.555631   
O205     O      0.512210000000     0.736580000000     0.433590000000    -0.555683   
O206     O      0.015180000000     0.736620000000     0.343960000000    -0.5555     
O207     O      0.057920000000     0.737480000000     0.389970000000    -0.556291   
O208     O      0.468540000000     0.735720000000     0.387580000000    -0.553551   
O209     O      0.263520000000     0.986410000000     0.433580000000    -0.548038   
O210     O      0.260830000000     0.986440000000     0.343930000000    -0.54748    
O211     O      0.307330000000     0.986370000000     0.387740000000    -0.547108   
O212     O      0.217930000000     0.986500000000     0.389760000000    -0.549834   
O213     O      0.218200000000     0.539000000000     0.387740000000    -0.554551   
O214     O      0.307610000000     0.538870000000     0.389780000000    -0.55731    
O215     O      0.264710000000     0.538950000000     0.343950000000    -0.555085   
O216     O      0.262010000000     0.538940000000     0.433590000000    -0.555616   
O217     O      0.262200000000     0.789110000000     0.433580000000    -0.55562    
O218     O      0.265200000000     0.789050000000     0.343950000000    -0.554866   
O219     O      0.218540000000     0.789960000000     0.387560000000    -0.553524   
O220     O      0.307920000000     0.788200000000     0.389970000000    -0.557843   
O221     O      0.307000000000     0.735720000000     0.387570000000    -0.55357    
O222     O      0.217610000000     0.737480000000     0.389970000000    -0.557657   
O223     O      0.260340000000     0.736620000000     0.343960000000    -0.554942   
O224     O      0.263330000000     0.736580000000     0.433590000000    -0.555557   
O225     O      0.513500000000     0.538920000000     0.594630000000    -0.555708   
O226     O      0.010810000000     0.538920000000     0.684270000000    -0.556765   
O227     O      0.057310000000     0.538980000000     0.640470000000    -0.5528     
O228     O      0.467900000000     0.538860000000     0.638450000000    -0.557288   
O229     O      0.468170000000     0.986350000000     0.640470000000    -0.546713   
O230     O      0.057580000000     0.986470000000     0.638460000000    -0.548211   
O231     O      0.514650000000     0.986410000000     0.684280000000    -0.547478   
O232     O      0.011990000000     0.986400000000     0.594630000000    -0.548266   
O233     O      0.013310000000     0.736570000000     0.594620000000    -0.555766   
O234     O      0.510320000000     0.736590000000     0.684250000000    -0.555109   
O235     O      0.467590000000     0.737460000000     0.638240000000    -0.557964   
O236     O      0.056970000000     0.735700000000     0.640640000000    -0.552031   
O237     O      0.057890000000     0.788180000000     0.638260000000    -0.556186   
O238     O      0.468510000000     0.789940000000     0.640640000000    -0.553513   
O239     O      0.015150000000     0.789020000000     0.684270000000    -0.555286   
O240     O      0.512190000000     0.789100000000     0.594630000000    -0.555397   
O241     O      0.264680000000     0.986420000000     0.684280000000    -0.547591   
O242     O      0.261980000000     0.986400000000     0.594640000000    -0.548304   
O243     O      0.307580000000     0.986480000000     0.638450000000    -0.549951   
O244     O      0.218170000000     0.986350000000     0.640480000000    -0.547009   
O245     O      0.217900000000     0.538850000000     0.638450000000    -0.557336   
O246     O      0.307300000000     0.538980000000     0.640480000000    -0.554688   
O247     O      0.263490000000     0.538920000000     0.594630000000    -0.555669   
O248     O      0.260800000000     0.538920000000     0.684280000000    -0.555203   
O249     O      0.218510000000     0.735690000000     0.640650000000    -0.553417   
O250     O      0.307890000000     0.737460000000     0.638240000000    -0.557881   
O251     O      0.265170000000     0.736590000000     0.684260000000    -0.554828   
O252     O      0.262170000000     0.736570000000     0.594630000000    -0.555834   
O253     O      0.263300000000     0.789100000000     0.594640000000    -0.555464   
O254     O      0.260310000000     0.789020000000     0.684270000000    -0.554831   
O255     O      0.306970000000     0.789940000000     0.640660000000    -0.553559   
O256     O      0.217590000000     0.788180000000     0.638250000000    -0.557741   
O257     O      0.539860000000     0.468530000000     0.140640000000    -0.553766   
O258     O      0.538090000000     0.057910000000     0.138260000000    -0.556133   
O259     O      0.538950000000     0.515170000000     0.184260000000    -0.555141   
O260     O      0.539000000000     0.012200000000     0.094630000000    -0.555627   
O261     O      0.986470000000     0.513330000000     0.094640000000    -0.548257   
O262     O      0.986530000000     0.010310000000     0.184270000000    -0.549045   
O263     O      0.985610000000     0.056980000000     0.140670000000    -0.544323   
O264     O      0.987380000000     0.467600000000     0.138240000000    -0.5505     
O265     O      0.539860000000     0.306990000000     0.140620000000    -0.55355    
O266     O      0.538090000000     0.217600000000     0.138260000000    -0.557882   
O267     O      0.539000000000     0.263300000000     0.094620000000    -0.555425   
O268     O      0.538960000000     0.260360000000     0.184260000000    -0.555115   
O269     O      0.986530000000     0.265190000000     0.184260000000    -0.547456   
O270     O      0.986460000000     0.262180000000     0.094630000000    -0.548089   
O271     O      0.985610000000     0.218520000000     0.140660000000    -0.545899   
O272     O      0.987380000000     0.307910000000     0.138240000000    -0.550352   
O273     O      0.736590000000     0.467920000000     0.138440000000    -0.557235   
O274     O      0.736460000000     0.057330000000     0.140490000000    -0.552902   
O275     O      0.736510000000     0.513530000000     0.094640000000    -0.55577    
O276     O      0.736520000000     0.010820000000     0.184280000000    -0.556369   
O277     O      0.789030000000     0.514690000000     0.184280000000    -0.554948   
O278     O      0.789030000000     0.012020000000     0.094630000000    -0.555661   
O279     O      0.788960000000     0.057610000000     0.138460000000    -0.555566   
O280     O      0.789100000000     0.468200000000     0.140470000000    -0.554236   
O281     O      0.789030000000     0.262000000000     0.094630000000    -0.555644   
O282     O      0.789030000000     0.264700000000     0.184270000000    -0.555234   
O283     O      0.789090000000     0.218200000000     0.140480000000    -0.55428    
O284     O      0.788970000000     0.307600000000     0.138440000000    -0.557223   
O285     O      0.736460000000     0.307340000000     0.140450000000    -0.554348   
O286     O      0.736580000000     0.217930000000     0.138470000000    -0.55731    
O287     O      0.736520000000     0.260860000000     0.184270000000    -0.555177   
O288     O      0.736510000000     0.263500000000     0.094630000000    -0.555658   
O289     O      0.538980000000     0.513300000000     0.933590000000    -0.555725   
O290     O      0.538930000000     0.010280000000     0.843950000000    -0.556354   
O291     O      0.539840000000     0.056950000000     0.887550000000    -0.551976   
O292     O      0.538070000000     0.467570000000     0.889990000000    -0.558013   
O293     O      0.985590000000     0.468490000000     0.887580000000    -0.5459     
O294     O      0.987360000000     0.057880000000     0.889960000000    -0.548641   
O295     O      0.986500000000     0.515130000000     0.843950000000    -0.547218   
O296     O      0.986450000000     0.012170000000     0.933590000000    -0.548208   
O297     O      0.538980000000     0.262150000000     0.933590000000    -0.555765   
O298     O      0.538930000000     0.265150000000     0.843960000000    -0.555139   
O299     O      0.538070000000     0.307880000000     0.889980000000    -0.557873   
O300     O      0.539840000000     0.218490000000     0.887560000000    -0.553592   
O301     O      0.987360000000     0.217570000000     0.889950000000    -0.550634   
O302     O      0.985590000000     0.306950000000     0.887590000000    -0.545921   
O303     O      0.986510000000     0.260320000000     0.843960000000    -0.547723   
O304     O      0.986450000000     0.263270000000     0.933590000000    -0.548262   
O305     O      0.788940000000     0.467890000000     0.889790000000    -0.557253   
O306     O      0.789080000000     0.057300000000     0.887720000000    -0.5528     
O307     O      0.789020000000     0.513500000000     0.933580000000    -0.555721   
O308     O      0.789010000000     0.010780000000     0.843940000000    -0.556357   
O309     O      0.736500000000     0.514650000000     0.843940000000    -0.555162   
O310     O      0.736500000000     0.011990000000     0.933590000000    -0.55574    
O311     O      0.736570000000     0.057570000000     0.889760000000    -0.555496   
O312     O      0.736440000000     0.468170000000     0.887760000000    -0.554677   
O313     O      0.736560000000     0.307570000000     0.889780000000    -0.55719    
O314     O      0.736450000000     0.218160000000     0.887740000000    -0.554449   
O315     O      0.736500000000     0.261970000000     0.933590000000    -0.555703   
O316     O      0.736500000000     0.264660000000     0.843950000000    -0.555327   
O317     O      0.789010000000     0.260830000000     0.843940000000    -0.554987   
O318     O      0.789020000000     0.263470000000     0.933590000000    -0.555617   
O319     O      0.788950000000     0.217890000000     0.889750000000    -0.557279   
O320     O      0.789070000000     0.307300000000     0.887760000000    -0.554317   
O321     O      0.014680000000     0.038950000000     0.343950000000    -0.552442   
O322     O      0.512020000000     0.038940000000     0.433590000000    -0.552693   
O323     O      0.557610000000     0.038880000000     0.389770000000    -0.554234   
O324     O      0.968200000000     0.039000000000     0.387760000000    -0.544107   
O325     O      0.967930000000     0.486490000000     0.389770000000    -0.549857   
O326     O      0.557340000000     0.486370000000     0.387750000000    -0.554252   
O327     O      0.013520000000     0.486410000000     0.433580000000    -0.555615   
O328     O      0.510850000000     0.486440000000     0.343940000000    -0.5551     
O329     O      0.967620000000     0.288200000000     0.389960000000    -0.55049    
O330     O      0.557000000000     0.289960000000     0.387570000000    -0.553516   
O331     O      0.010350000000     0.289040000000     0.343950000000    -0.556709   
O332     O      0.513330000000     0.289110000000     0.433590000000    -0.555396   
O333     O      0.012210000000     0.236580000000     0.433590000000    -0.555852   
O334     O      0.515180000000     0.236620000000     0.343960000000    -0.555301   
O335     O      0.557920000000     0.237480000000     0.389970000000    -0.557994   
O336     O      0.968540000000     0.235720000000     0.387580000000    -0.546161   
O337     O      0.763520000000     0.486410000000     0.433580000000    -0.555443   
O338     O      0.760840000000     0.486440000000     0.343930000000    -0.555039   
O339     O      0.807330000000     0.486370000000     0.387740000000    -0.554536   
O340     O      0.717930000000     0.486500000000     0.389760000000    -0.557361   
O341     O      0.718200000000     0.039010000000     0.387740000000    -0.551418   
O342     O      0.807610000000     0.038870000000     0.389780000000    -0.55407    
O343     O      0.764710000000     0.038950000000     0.343950000000    -0.55201    
O344     O      0.762010000000     0.038940000000     0.433590000000    -0.552524   
O345     O      0.762200000000     0.289110000000     0.433580000000    -0.555489   
O346     O      0.765200000000     0.289040000000     0.343950000000    -0.555103   
O347     O      0.718540000000     0.289960000000     0.387560000000    -0.553667   
O348     O      0.807920000000     0.288200000000     0.389970000000    -0.557756   
O349     O      0.807000000000     0.235720000000     0.387570000000    -0.553447   
O350     O      0.717610000000     0.237480000000     0.389970000000    -0.557788   
O351     O      0.760340000000     0.236620000000     0.343960000000    -0.555013   
O352     O      0.763330000000     0.236580000000     0.433590000000    -0.555615   
O353     O      0.013500000000     0.038920000000     0.594630000000    -0.552629   
O354     O      0.510810000000     0.038920000000     0.684270000000    -0.552256   
O355     O      0.557310000000     0.038980000000     0.640470000000    -0.551404   
O356     O      0.967900000000     0.038860000000     0.638450000000    -0.546882   
O357     O      0.968170000000     0.486350000000     0.640470000000    -0.546903   
O358     O      0.557580000000     0.486470000000     0.638460000000    -0.557076   
O359     O      0.014650000000     0.486410000000     0.684280000000    -0.555371   
O360     O      0.511990000000     0.486400000000     0.594630000000    -0.555639   
O361     O      0.513310000000     0.236570000000     0.594620000000    -0.555804   
O362     O      0.010320000000     0.236590000000     0.684250000000    -0.556566   
O363     O      0.967590000000     0.237460000000     0.638240000000    -0.550635   
O364     O      0.556970000000     0.235690000000     0.640640000000    -0.553412   
O365     O      0.557890000000     0.288180000000     0.638260000000    -0.557825   
O366     O      0.968510000000     0.289940000000     0.640640000000    -0.546177   
O367     O      0.515150000000     0.289020000000     0.684270000000    -0.55502    
O368     O      0.012190000000     0.289100000000     0.594630000000    -0.555487   
O369     O      0.764680000000     0.486420000000     0.684280000000    -0.555205   
O370     O      0.761980000000     0.486400000000     0.594640000000    -0.555703   
O371     O      0.807580000000     0.486480000000     0.638450000000    -0.557187   
O372     O      0.718170000000     0.486350000000     0.640480000000    -0.554586   
O373     O      0.717900000000     0.038850000000     0.638450000000    -0.554264   
O374     O      0.807300000000     0.038980000000     0.640480000000    -0.551607   
O375     O      0.763490000000     0.038920000000     0.594630000000    -0.552577   
O376     O      0.760800000000     0.038920000000     0.684280000000    -0.552042   
O377     O      0.718510000000     0.235690000000     0.640650000000    -0.553429   
O378     O      0.807890000000     0.237460000000     0.638240000000    -0.557746   
O379     O      0.765170000000     0.236590000000     0.684260000000    -0.554789   
O380     O      0.762170000000     0.236560000000     0.594630000000    -0.555568   
O381     O      0.763300000000     0.289100000000     0.594640000000    -0.555343   
O382     O      0.760310000000     0.289020000000     0.684270000000    -0.554864   
O383     O      0.806970000000     0.289940000000     0.640660000000    -0.553452   
O384     O      0.717590000000     0.288180000000     0.638250000000    -0.557802   
O385     O      0.539860000000     0.968520000000     0.140640000000    -0.5463     
O386     O      0.538090000000     0.557910000000     0.138260000000    -0.557902   
O387     O      0.538950000000     0.015170000000     0.184260000000    -0.55547    
O388     O      0.539000000000     0.512200000000     0.094630000000    -0.555599   
O389     O      0.986470000000     0.013330000000     0.094640000000    -0.548229   
O390     O      0.986530000000     0.510310000000     0.184270000000    -0.547599   
O391     O      0.985610000000     0.556980000000     0.140670000000    -0.545936   
O392     O      0.987380000000     0.967600000000     0.138240000000    -0.543266   
O393     O      0.539860000000     0.806990000000     0.140630000000    -0.553452   
O394     O      0.538090000000     0.717600000000     0.138260000000    -0.557942   
O395     O      0.539000000000     0.763300000000     0.094630000000    -0.555508   
O396     O      0.538960000000     0.760360000000     0.184260000000    -0.555137   
O397     O      0.986530000000     0.765180000000     0.184260000000    -0.547464   
O398     O      0.986460000000     0.762180000000     0.094630000000    -0.548012   
O399     O      0.985610000000     0.718520000000     0.140660000000    -0.545904   
O400     O      0.987380000000     0.807910000000     0.138240000000    -0.550244   
O401     O      0.736590000000     0.967920000000     0.138440000000    -0.549927   
O402     O      0.736460000000     0.557330000000     0.140490000000    -0.554517   
O403     O      0.736510000000     0.013530000000     0.094640000000    -0.555717   
O404     O      0.736520000000     0.510820000000     0.184280000000    -0.554963   
O405     O      0.789030000000     0.014690000000     0.184280000000    -0.555326   
O406     O      0.789030000000     0.512020000000     0.094630000000    -0.555594   
O407     O      0.788960000000     0.557610000000     0.138460000000    -0.557238   
O408     O      0.789100000000     0.968200000000     0.140470000000    -0.546907   
O409     O      0.789030000000     0.762000000000     0.094630000000    -0.555622   
O410     O      0.789030000000     0.764700000000     0.184270000000    -0.555213   
O411     O      0.789090000000     0.718200000000     0.140480000000    -0.554308   
O412     O      0.788970000000     0.807600000000     0.138440000000    -0.557055   
O413     O      0.736460000000     0.807330000000     0.140450000000    -0.554349   
O414     O      0.736580000000     0.717930000000     0.138470000000    -0.557398   
O415     O      0.736520000000     0.760860000000     0.184270000000    -0.555193   
O416     O      0.736510000000     0.763500000000     0.094630000000    -0.555666   
O417     O      0.538980000000     0.013300000000     0.933590000000    -0.555669   
O418     O      0.538930000000     0.510280000000     0.843950000000    -0.554928   
O419     O      0.539840000000     0.556950000000     0.887550000000    -0.553672   
O420     O      0.538070000000     0.967570000000     0.889990000000    -0.550697   
O421     O      0.985590000000     0.968490000000     0.887580000000    -0.53861    
O422     O      0.987360000000     0.557880000000     0.889960000000    -0.550388   
O423     O      0.986500000000     0.015130000000     0.843950000000    -0.547597   
O424     O      0.986450000000     0.512170000000     0.933590000000    -0.548117   
O425     O      0.538980000000     0.762150000000     0.933590000000    -0.555753   
O426     O      0.538930000000     0.765150000000     0.843960000000    -0.555161   
O427     O      0.538070000000     0.807870000000     0.889980000000    -0.557883   
O428     O      0.539840000000     0.718490000000     0.887560000000    -0.553674   
O429     O      0.987360000000     0.717570000000     0.889950000000    -0.550658   
O430     O      0.985590000000     0.806950000000     0.887590000000    -0.545771   
O431     O      0.986510000000     0.760320000000     0.843960000000    -0.547695   
O432     O      0.986450000000     0.763270000000     0.933590000000    -0.548199   
O433     O      0.788940000000     0.967890000000     0.889790000000    -0.549944   
O434     O      0.789080000000     0.557300000000     0.887720000000    -0.554413   
O435     O      0.789020000000     0.013500000000     0.933580000000    -0.555669   
O436     O      0.789010000000     0.510780000000     0.843940000000    -0.554954   
O437     O      0.736500000000     0.014650000000     0.843940000000    -0.555537   
O438     O      0.736500000000     0.511990000000     0.933590000000    -0.555674   
O439     O      0.736570000000     0.557570000000     0.889760000000    -0.557169   
O440     O      0.736440000000     0.968170000000     0.887760000000    -0.547341   
O441     O      0.736560000000     0.807570000000     0.889780000000    -0.557132   
O442     O      0.736450000000     0.718160000000     0.887740000000    -0.554496   
O443     O      0.736500000000     0.761970000000     0.933590000000    -0.55565    
O444     O      0.736500000000     0.764660000000     0.843950000000    -0.555304   
O445     O      0.789010000000     0.760820000000     0.843940000000    -0.554948   
O446     O      0.789020000000     0.763470000000     0.933590000000    -0.555552   
O447     O      0.788950000000     0.717890000000     0.889750000000    -0.557462   
O448     O      0.789070000000     0.807300000000     0.887760000000    -0.554132   
O449     O      0.014680000000     0.538950000000     0.343950000000    -0.55549    
O450     O      0.512020000000     0.538940000000     0.433590000000    -0.555653   
O451     O      0.557610000000     0.538880000000     0.389770000000    -0.557443   
O452     O      0.968200000000     0.539000000000     0.387760000000    -0.54705    
O453     O      0.967930000000     0.986490000000     0.389770000000    -0.542519   
O454     O      0.557340000000     0.986370000000     0.387750000000    -0.546824   
O455     O      0.013520000000     0.986420000000     0.433580000000    -0.548379   
O456     O      0.510850000000     0.986440000000     0.343940000000    -0.547562   
O457     O      0.967620000000     0.788200000000     0.389960000000    -0.550475   
O458     O      0.557000000000     0.789960000000     0.387570000000    -0.553466   
O459     O      0.010350000000     0.789050000000     0.343950000000    -0.556287   
O460     O      0.513330000000     0.789110000000     0.433590000000    -0.555648   
O461     O      0.012210000000     0.736580000000     0.433590000000    -0.555751   
O462     O      0.515180000000     0.736620000000     0.343960000000    -0.555187   
O463     O      0.557920000000     0.737480000000     0.389970000000    -0.557982   
O464     O      0.968540000000     0.735720000000     0.387580000000    -0.546153   
O465     O      0.763520000000     0.986410000000     0.433580000000    -0.547984   
O466     O      0.760840000000     0.986440000000     0.343930000000    -0.547484   
O467     O      0.807330000000     0.986370000000     0.387740000000    -0.546988   
O468     O      0.717930000000     0.986500000000     0.389760000000    -0.549873   
O469     O      0.718200000000     0.539000000000     0.387740000000    -0.554585   
O470     O      0.807610000000     0.538870000000     0.389780000000    -0.557175   
O471     O      0.764710000000     0.538950000000     0.343950000000    -0.555073   
O472     O      0.762010000000     0.538940000000     0.433590000000    -0.555564   
O473     O      0.762200000000     0.789110000000     0.433580000000    -0.555567   
O474     O      0.765200000000     0.789050000000     0.343950000000    -0.554849   
O475     O      0.718540000000     0.789960000000     0.387560000000    -0.553635   
O476     O      0.807920000000     0.788200000000     0.389970000000    -0.557723   
O477     O      0.807000000000     0.735720000000     0.387570000000    -0.55344    
O478     O      0.717610000000     0.737480000000     0.389970000000    -0.557774   
O479     O      0.760340000000     0.736620000000     0.343960000000    -0.554916   
O480     O      0.763330000000     0.736580000000     0.433590000000    -0.555495   
O481     O      0.013500000000     0.538920000000     0.594630000000    -0.555655   
O482     O      0.510810000000     0.538920000000     0.684270000000    -0.555314   
O483     O      0.557310000000     0.538980000000     0.640470000000    -0.554349   
O484     O      0.967900000000     0.538860000000     0.638450000000    -0.549951   
O485     O      0.968170000000     0.986350000000     0.640470000000    -0.539401   
O486     O      0.557580000000     0.986470000000     0.638460000000    -0.549841   
O487     O      0.014650000000     0.986410000000     0.684280000000    -0.547837   
O488     O      0.511990000000     0.986400000000     0.594630000000    -0.548174   
O489     O      0.513310000000     0.736570000000     0.594620000000    -0.555823   
O490     O      0.010320000000     0.736590000000     0.684250000000    -0.556578   
O491     O      0.967590000000     0.737460000000     0.638240000000    -0.550651   
O492     O      0.556970000000     0.735700000000     0.640640000000    -0.553623   
O493     O      0.557890000000     0.788180000000     0.638260000000    -0.557874   
O494     O      0.968510000000     0.789940000000     0.640640000000    -0.546154   
O495     O      0.515150000000     0.789020000000     0.684270000000    -0.554969   
O496     O      0.012190000000     0.789100000000     0.594630000000    -0.555472   
O497     O      0.764680000000     0.986420000000     0.684280000000    -0.547569   
O498     O      0.761980000000     0.986400000000     0.594640000000    -0.548249   
O499     O      0.807580000000     0.986480000000     0.638450000000    -0.549786   
O500     O      0.718170000000     0.986350000000     0.640480000000    -0.547036   
O501     O      0.717900000000     0.538850000000     0.638450000000    -0.557358   
O502     O      0.807300000000     0.538980000000     0.640480000000    -0.55457    
O503     O      0.763490000000     0.538920000000     0.594630000000    -0.555608   
O504     O      0.760800000000     0.538920000000     0.684280000000    -0.55518    
O505     O      0.718510000000     0.735690000000     0.640650000000    -0.553442   
O506     O      0.807890000000     0.737460000000     0.638240000000    -0.557755   
O507     O      0.765170000000     0.736590000000     0.684260000000    -0.554801   
O508     O      0.762170000000     0.736570000000     0.594630000000    -0.55578    
O509     O      0.763300000000     0.789100000000     0.594640000000    -0.555404   
O510     O      0.760310000000     0.789020000000     0.684270000000    -0.554815   
O511     O      0.806970000000     0.789940000000     0.640660000000    -0.553423   
O512     O      0.717590000000     0.788180000000     0.638250000000    -0.557776   
V1       V      0.041080000000     0.513410000000     0.139450000000     1.38185    
V2       V      0.484390000000     0.012090000000     0.139460000000     1.38436    
V3       V      0.041080000000     0.262100000000     0.139450000000     1.38137    
V4       V      0.484390000000     0.263410000000     0.139450000000     1.39333    
V5       V      0.234420000000     0.512480000000     0.139460000000     1.39374    
V6       V      0.291130000000     0.013050000000     0.139460000000     1.38442    
V7       V      0.291130000000     0.263040000000     0.139460000000     1.39401    
V8       V      0.234420000000     0.262490000000     0.139460000000     1.39377    
V9       V      0.041060000000     0.012060000000     0.888770000000     1.37237    
V10      V      0.484370000000     0.013380000000     0.888770000000     1.38396    
V11      V      0.041060000000     0.263380000000     0.888770000000     1.38158    
V12      V      0.484370000000     0.262060000000     0.888770000000     1.39379    
V13      V      0.291110000000     0.512450000000     0.888760000000     1.3937     
V14      V      0.234400000000     0.013010000000     0.888760000000     1.38461    
V15      V      0.234400000000     0.263010000000     0.888760000000     1.39372    
V16      V      0.291110000000     0.262460000000     0.888760000000     1.39357    
V17      V      0.013040000000     0.041040000000     0.388770000000     1.37282    
V18      V      0.012490000000     0.484330000000     0.388760000000     1.38426    
V19      V      0.512110000000     0.291180000000     0.388760000000     1.39291    
V20      V      0.013430000000     0.234500000000     0.388770000000     1.38471    
V21      V      0.262490000000     0.484330000000     0.388750000000     1.39375    
V22      V      0.263050000000     0.041040000000     0.388770000000     1.38178    
V23      V      0.263430000000     0.291180000000     0.388760000000     1.39361    
V24      V      0.262110000000     0.234500000000     0.388770000000     1.3933     
V25      V      0.012460000000     0.041020000000     0.639460000000     1.37255    
V26      V      0.013020000000     0.484310000000     0.639460000000     1.38439    
V27      V      0.512080000000     0.234480000000     0.639440000000     1.39353    
V28      V      0.513400000000     0.291160000000     0.639460000000     1.39317    
V29      V      0.263020000000     0.484310000000     0.639460000000     1.39386    
V30      V      0.262460000000     0.041020000000     0.639460000000     1.3816     
V31      V      0.263400000000     0.234480000000     0.639440000000     1.39343    
V32      V      0.262080000000     0.291160000000     0.639460000000     1.39343    
V33      V      0.041080000000     0.013410000000     0.139450000000     1.37251    
V34      V      0.484390000000     0.512090000000     0.139460000000     1.39352    
V35      V      0.041080000000     0.762100000000     0.139450000000     1.38171    
V36      V      0.484390000000     0.763410000000     0.139450000000     1.39333    
V37      V      0.234420000000     0.012480000000     0.139460000000     1.38453    
V38      V      0.291130000000     0.513050000000     0.139460000000     1.39351    
V39      V      0.291130000000     0.763040000000     0.139460000000     1.39399    
V40      V      0.234420000000     0.762490000000     0.139460000000     1.39413    
V41      V      0.041060000000     0.512060000000     0.888770000000     1.38156    
V42      V      0.484370000000     0.513380000000     0.888770000000     1.39304    
V43      V      0.041060000000     0.763380000000     0.888770000000     1.38195    
V44      V      0.484370000000     0.762060000000     0.888770000000     1.39376    
V45      V      0.291110000000     0.012450000000     0.888760000000     1.38448    
V46      V      0.234400000000     0.513010000000     0.888760000000     1.3937     
V47      V      0.234400000000     0.763010000000     0.888760000000     1.39377    
V48      V      0.291110000000     0.762450000000     0.888760000000     1.39362    
V49      V      0.013040000000     0.541040000000     0.388770000000     1.38463    
V50      V      0.012490000000     0.984330000000     0.388760000000     1.3901     
V51      V      0.512110000000     0.791180000000     0.388770000000     1.39301    
V52      V      0.013430000000     0.734500000000     0.388770000000     1.38447    
V53      V      0.262490000000     0.984330000000     0.388750000000     1.39942    
V54      V      0.263050000000     0.541040000000     0.388770000000     1.39369    
V55      V      0.263430000000     0.791180000000     0.388760000000     1.39372    
V56      V      0.262110000000     0.734500000000     0.388770000000     1.39307    
V57      V      0.012460000000     0.541020000000     0.639460000000     1.38435    
V58      V      0.013020000000     0.984310000000     0.639460000000     1.39012    
V59      V      0.512080000000     0.734480000000     0.639440000000     1.39345    
V60      V      0.513400000000     0.791160000000     0.639460000000     1.39331    
V61      V      0.263020000000     0.984310000000     0.639460000000     1.39963    
V62      V      0.262460000000     0.541020000000     0.639460000000     1.39377    
V63      V      0.263400000000     0.734480000000     0.639440000000     1.39335    
V64      V      0.262080000000     0.791160000000     0.639460000000     1.39357    
V65      V      0.541080000000     0.513410000000     0.139450000000     1.39366    
V66      V      0.984390000000     0.012090000000     0.139460000000     1.39012    
V67      V      0.541080000000     0.262100000000     0.139450000000     1.3932     
V68      V      0.984390000000     0.263410000000     0.139450000000     1.39904    
V69      V      0.734420000000     0.512480000000     0.139460000000     1.39356    
V70      V      0.791130000000     0.013050000000     0.139460000000     1.38448    
V71      V      0.791130000000     0.263040000000     0.139460000000     1.39411    
V72      V      0.734420000000     0.262490000000     0.139460000000     1.39363    
V73      V      0.541060000000     0.012060000000     0.888770000000     1.38415    
V74      V      0.984370000000     0.013380000000     0.888770000000     1.38969    
V75      V      0.541060000000     0.263380000000     0.888770000000     1.39338    
V76      V      0.984370000000     0.262060000000     0.888770000000     1.39955    
V77      V      0.791110000000     0.512450000000     0.888760000000     1.39381    
V78      V      0.734400000000     0.013010000000     0.888760000000     1.38446    
V79      V      0.734400000000     0.263010000000     0.888760000000     1.39364    
V80      V      0.791110000000     0.262460000000     0.888760000000     1.39372    
V81      V      0.513050000000     0.041040000000     0.388770000000     1.38179    
V82      V      0.512490000000     0.484330000000     0.388760000000     1.3936     
V83      V      0.012110000000     0.291180000000     0.388760000000     1.38386    
V84      V      0.513430000000     0.234500000000     0.388770000000     1.39374    
V85      V      0.762490000000     0.484330000000     0.388750000000     1.39381    
V86      V      0.763050000000     0.041040000000     0.388770000000     1.38183    
V87      V      0.763430000000     0.291180000000     0.388760000000     1.39366    
V88      V      0.762110000000     0.234500000000     0.388770000000     1.39335    
V89      V      0.512460000000     0.041020000000     0.639460000000     1.38182    
V90      V      0.513010000000     0.484310000000     0.639460000000     1.39338    
V91      V      0.012080000000     0.234480000000     0.639440000000     1.38417    
V92      V      0.013400000000     0.291160000000     0.639460000000     1.3842     
V93      V      0.763020000000     0.484310000000     0.639460000000     1.3939     
V94      V      0.762460000000     0.041020000000     0.639460000000     1.38196    
V95      V      0.763400000000     0.234480000000     0.639440000000     1.39347    
V96      V      0.762080000000     0.291160000000     0.639460000000     1.39348    
V97      V      0.541080000000     0.013410000000     0.139450000000     1.38426    
V98      V      0.984390000000     0.512090000000     0.139460000000     1.39929    
V99      V      0.541080000000     0.762100000000     0.139450000000     1.39354    
V100     V      0.984390000000     0.763410000000     0.139450000000     1.39903    
V101     V      0.734420000000     0.012480000000     0.139460000000     1.38434    
V102     V      0.791130000000     0.513050000000     0.139460000000     1.39356    
V103     V      0.791130000000     0.763040000000     0.139460000000     1.3941     
V104     V      0.734420000000     0.762490000000     0.139460000000     1.39399    
V105     V      0.541060000000     0.512060000000     0.888770000000     1.3934     
V106     V      0.984370000000     0.513380000000     0.888770000000     1.39875    
V107     V      0.541060000000     0.763380000000     0.888770000000     1.39375    
V108     V      0.984370000000     0.762060000000     0.888770000000     1.39952    
V109     V      0.791110000000     0.012450000000     0.888760000000     1.38459    
V110     V      0.734400000000     0.513010000000     0.888760000000     1.39356    
V111     V      0.734400000000     0.763010000000     0.888760000000     1.39368    
V112     V      0.791110000000     0.762450000000     0.888760000000     1.39376    
V113     V      0.513050000000     0.541040000000     0.388770000000     1.39366    
V114     V      0.512490000000     0.984330000000     0.388760000000     1.39942    
V115     V      0.012110000000     0.791180000000     0.388770000000     1.38397    
V116     V      0.513430000000     0.734500000000     0.388770000000     1.39351    
V117     V      0.762490000000     0.984330000000     0.388750000000     1.39948    
V118     V      0.763050000000     0.541040000000     0.388770000000     1.39373    
V119     V      0.763430000000     0.791180000000     0.388760000000     1.39376    
V120     V      0.762110000000     0.734500000000     0.388770000000     1.39311    
V121     V      0.512460000000     0.541020000000     0.639460000000     1.39368    
V122     V      0.513020000000     0.984310000000     0.639460000000     1.3991     
V123     V      0.012080000000     0.734480000000     0.639440000000     1.38409    
V124     V      0.013400000000     0.791160000000     0.639460000000     1.38435    
V125     V      0.763020000000     0.984310000000     0.639460000000     1.3996     
V126     V      0.762460000000     0.541020000000     0.639460000000     1.39381    
V127     V      0.763400000000     0.734480000000     0.639440000000     1.39338    
V128     V      0.762080000000     0.791160000000     0.639460000000     1.39362    


