data_structure

_audit_creation_method RASPA-1.0
_audit_creation_date 2023-5-19
_audit_author_name 'Poobodin Mano'

_cell_length_a    42.247
_cell_length_b    42.2358
_cell_length_c    42.249
_cell_angle_alpha 90
_cell_angle_beta  90
_cell_angle_gamma 90
_cell_volume      75386.4

_symmetry_cell_setting          triclinic
_symmetry_space_group_name_Hall 'P 1'
_symmetry_space_group_name_H-M  'P 1'
_symmetry_Int_Tables_number     1

_symmetry_equiv_pos_as_xyz 'x,y,z'

loop_
_atom_site_label
_atom_site_type_symbol
_atom_site_fract_x
_atom_site_fract_y
_atom_site_fract_z
_atom_site_charge
C1       C      0.500580000000     0.061240000000     0.249820000000     0.479888   
C2       C      0.501530000000     0.441760000000     0.251280000000     0.480793   
C3       C      0.440910000000     0.501320000000     0.251830000000     0.478873   
C4       C      0.060350000000     0.501810000000     0.249260000000     0.480458   
C5       C      0.000990000000     0.191650000000     0.250730000000     0.463138   
C6       C      0.001470000000     0.311330000000     0.251600000000     0.458455   
C7       C      0.500930000000     0.251310000000     0.191490000000     0.479216   
C8       C      0.501380000000     0.250640000000     0.311010000000     0.47893    
C9       C      0.310540000000     0.001920000000     0.253470000000     0.466604   
C10      C      0.190740000000     0.003230000000     0.248670000000     0.466801   
C11      C      0.253760000000     0.502620000000     0.191380000000     0.479646   
C12      C      0.247730000000     0.502430000000     0.311120000000     0.477967   
C13      C      0.253080000000     0.001390000000     0.061110000000     0.468568   
C14      C      0.246780000000     0.001210000000     0.441450000000     0.470054   
C15      C      0.246050000000     0.061150000000     0.501300000000     0.481962   
C16      C      0.253840000000     0.441580000000     0.501030000000     0.481805   
C17      C      0.000350000000     0.249850000000     0.441470000000     0.457015   
C18      C      0.001680000000     0.250250000000     0.061130000000     0.45263    
C19      C      0.060830000000     0.251930000000     0.000200000000     0.452275   
C20      C      0.441260000000     0.248250000000     0.002050000000     0.464639   
C21      C      0.254130000000     0.311160000000     0.001370000000     0.467393   
C22      C      0.247580000000     0.191360000000     0.000790000000     0.465548   
C23      C      0.191220000000     0.254130000000     0.499400000000     0.479949   
C24      C      0.310850000000     0.248180000000     0.502710000000     0.477371   
C25      C      0.359810000000     0.262780000000     0.026100000000     0.0321761  
C26      C      0.359180000000     0.231010000000     0.480110000000     0.029595   
C27      C      0.392820000000     0.264120000000     0.024640000000     0.0319783  
C28      C      0.392300000000     0.230020000000     0.480120000000     0.0526446  
C29      C      0.407840000000     0.213050000000     0.454680000000     0.0475595  
C30      C      0.110210000000     0.231260000000     0.016600000000     0.0251293  
C31      C      0.108730000000     0.275070000000     0.481900000000     0.0288226  
C32      C      0.143120000000     0.232900000000     0.017250000000     0.0284399  
C33      C      0.141930000000     0.275050000000     0.480290000000     0.0530275  
C34      C      0.157230000000     0.299120000000     0.461270000000     0.0484505  
C35      C      0.239000000000     0.360100000000     0.024080000000     0.0332854  
C36      C      0.272110000000     0.359600000000     0.979040000000     0.0389243  
C37      C      0.238070000000     0.393060000000     0.023010000000     0.035178   
C38      C      0.273480000000     0.392820000000     0.979550000000     0.0607035  
C39      C      0.291390000000     0.408670000000     0.955000000000     0.0501398  
C40      C      0.259160000000     0.142300000000     0.976380000000     0.0405373  
C41      C      0.231040000000     0.143230000000     0.024710000000     0.0281054  
C42      C      0.259670000000     0.109320000000     0.977350000000     0.0419651  
C43      C      0.228980000000     0.110050000000     0.024260000000     0.0516419  
C44      C      0.213230000000     0.094350000000     0.050350000000     0.0444944  
C45      C      0.261910000000     0.025170000000     0.360330000000     0.0320601  
C46      C      0.229870000000     0.479360000000     0.359220000000     0.0303974  
C47      C      0.262560000000     0.023890000000     0.393270000000     0.0344633  
C48      C      0.228170000000     0.479600000000     0.392400000000     0.0548671  
C49      C      0.210680000000     0.454540000000     0.407920000000     0.0503794  
C50      C      0.234500000000     0.482210000000     0.110190000000     0.0366393  
C51      C      0.275200000000     0.020520000000     0.109030000000     0.0304485  
C52      C      0.235840000000     0.481690000000     0.143130000000     0.0348096  
C53      C      0.274360000000     0.022440000000     0.142200000000     0.0523884  
C54      C      0.295810000000     0.044270000000     0.157600000000     0.0482071  
C55      C      0.483660000000     0.271780000000     0.392560000000     0.0358514  
C56      C      0.017690000000     0.227440000000     0.393050000000     0.0282674  
C57      C      0.483010000000     0.270890000000     0.359550000000     0.0346453  
C58      C      0.019160000000     0.228020000000     0.359930000000     0.0510349  
C59      C      0.037450000000     0.203580000000     0.344280000000     0.0478278  
C60      C      0.517490000000     0.273090000000     0.109920000000     0.0330249  
C61      C      0.485350000000     0.227340000000     0.109640000000     0.0285563  
C62      C      0.518340000000     0.272270000000     0.142920000000     0.0336009  
C63      C      0.483930000000     0.227970000000     0.142740000000     0.0527937  
C64      C      0.466690000000     0.202880000000     0.158550000000     0.0488085  
C65      C      0.141670000000     0.026490000000     0.263120000000     0.0342955  
C66      C      0.142470000000     0.479520000000     0.232800000000     0.0315832  
C67      C      0.108690000000     0.024890000000     0.264630000000     0.0365514  
C68      C      0.109350000000     0.479260000000     0.232010000000     0.0564277  
C69      C      0.093860000000     0.453130000000     0.216060000000     0.0508765  
C70      C      0.359520000000     0.478230000000     0.268020000000     0.0334804  
C71      C      0.358970000000     0.025730000000     0.238540000000     0.0270599  
C72      C      0.392590000000     0.479230000000     0.268820000000     0.0340028  
C73      C      0.392010000000     0.025350000000     0.236900000000     0.0529202  
C74      C      0.407620000000     0.051390000000     0.220910000000     0.0497104  
C75      C      0.479040000000     0.360220000000     0.235580000000     0.0331999  
C76      C      0.024860000000     0.359790000000     0.267600000000     0.0269458  
C77      C      0.480170000000     0.393190000000     0.234430000000     0.0349994  
C78      C      0.024620000000     0.392940000000     0.268620000000     0.052599   
C79      C      0.049990000000     0.408670000000     0.285490000000     0.0509609  
C80      C      0.478600000000     0.142710000000     0.266690000000     0.0393718  
C81      C      0.023480000000     0.143270000000     0.233360000000     0.0313273  
C82      C      0.479590000000     0.109710000000     0.267440000000     0.0388195  
C83      C      0.023010000000     0.110150000000     0.231940000000     0.0530785  
C84      C      0.047730000000     0.094500000000     0.214050000000     0.0489021  
C85      C      0.500580000000     0.061240000000     0.749820000000     0.479856   
C86      C      0.501530000000     0.441760000000     0.751280000000     0.480764   
C87      C      0.440910000000     0.501320000000     0.751830000000     0.478851   
C88      C      0.060350000000     0.501810000000     0.749260000000     0.48042    
C89      C      0.000990000000     0.191650000000     0.750720000000     0.463156   
C90      C      0.001470000000     0.311330000000     0.751600000000     0.458497   
C91      C      0.500930000000     0.251310000000     0.691500000000     0.479298   
C92      C      0.501380000000     0.250640000000     0.811010000000     0.47897    
C93      C      0.310540000000     0.001920000000     0.753470000000     0.466592   
C94      C      0.190740000000     0.003230000000     0.748670000000     0.466786   
C95      C      0.253760000000     0.502620000000     0.691380000000     0.479708   
C96      C      0.247730000000     0.502430000000     0.811130000000     0.477924   
C97      C      0.253080000000     0.001390000000     0.561110000000     0.468153   
C98      C      0.246780000000     0.001210000000     0.941450000000     0.469828   
C99      C      0.246050000000     0.061150000000     0.001300000000     0.470459   
C100     C      0.253840000000     0.441580000000     0.001030000000     0.470058   
C101     C      0.000350000000     0.249850000000     0.941470000000     0.454457   
C102     C      0.001680000000     0.250250000000     0.561130000000     0.45416    
C103     C      0.060830000000     0.251930000000     0.500200000000     0.473671   
C104     C      0.441260000000     0.248250000000     0.502040000000     0.47842    
C105     C      0.254130000000     0.311160000000     0.501370000000     0.478907   
C106     C      0.247580000000     0.191360000000     0.500790000000     0.476964   
C107     C      0.191220000000     0.254130000000     0.999400000000     0.491684   
C108     C      0.310850000000     0.248180000000     0.002710000000     0.466095   
C109     C      0.359810000000     0.262780000000     0.526100000000     0.0338012  
C110     C      0.359180000000     0.231010000000     0.980110000000     0.0366794  
C111     C      0.392820000000     0.264120000000     0.524640000000     0.0338552  
C112     C      0.392300000000     0.230020000000     0.980110000000     0.0583741  
C113     C      0.407840000000     0.213050000000     0.954680000000     0.0484301  
C114     C      0.110210000000     0.231260000000     0.516600000000     0.0330959  
C115     C      0.108730000000     0.275070000000     0.981900000000     0.0294136  
C116     C      0.143120000000     0.232900000000     0.517250000000     0.0344126  
C117     C      0.141930000000     0.275050000000     0.980290000000     0.0552671  
C118     C      0.157230000000     0.299120000000     0.961270000000     0.0498113  
C119     C      0.239000000000     0.360100000000     0.524080000000     0.0350493  
C120     C      0.272110000000     0.359600000000     0.479040000000     0.0319698  
C121     C      0.238070000000     0.393060000000     0.523010000000     0.0370648  
C122     C      0.273480000000     0.392820000000     0.479550000000     0.0547698  
C123     C      0.291390000000     0.408670000000     0.455000000000     0.0494349  
C124     C      0.259160000000     0.142300000000     0.476380000000     0.0339212  
C125     C      0.231040000000     0.143230000000     0.524710000000     0.0297605  
C126     C      0.259670000000     0.109320000000     0.477350000000     0.0351892  
C127     C      0.228980000000     0.110050000000     0.524260000000     0.0531018  
C128     C      0.213230000000     0.094350000000     0.550350000000     0.0450001  
C129     C      0.261910000000     0.025170000000     0.860330000000     0.0322243  
C130     C      0.229870000000     0.479360000000     0.859210000000     0.0306329  
C131     C      0.262560000000     0.023890000000     0.893270000000     0.0348114  
C132     C      0.228170000000     0.479600000000     0.892400000000     0.0550318  
C133     C      0.210680000000     0.454540000000     0.907920000000     0.05146    
C134     C      0.234500000000     0.482210000000     0.610190000000     0.0368752  
C135     C      0.275200000000     0.020520000000     0.609030000000     0.0305836  
C136     C      0.235840000000     0.481690000000     0.643130000000     0.0349146  
C137     C      0.274360000000     0.022440000000     0.642200000000     0.0525272  
C138     C      0.295810000000     0.044270000000     0.657610000000     0.0485766  
C139     C      0.483660000000     0.271780000000     0.892560000000     0.0359137  
C140     C      0.017690000000     0.227440000000     0.893050000000     0.0283576  
C141     C      0.483010000000     0.270890000000     0.859550000000     0.0349257  
C142     C      0.019160000000     0.228020000000     0.859930000000     0.0512781  
C143     C      0.037450000000     0.203580000000     0.844280000000     0.0482486  
C144     C      0.517490000000     0.273090000000     0.609910000000     0.0333004  
C145     C      0.485350000000     0.227340000000     0.609640000000     0.0287874  
C146     C      0.518340000000     0.272270000000     0.642920000000     0.0336726  
C147     C      0.483930000000     0.227970000000     0.642740000000     0.0528335  
C148     C      0.466690000000     0.202880000000     0.658550000000     0.0490847  
C149     C      0.141670000000     0.026490000000     0.763120000000     0.0343665  
C150     C      0.142470000000     0.479520000000     0.732800000000     0.0316343  
C151     C      0.108690000000     0.024890000000     0.764630000000     0.0366384  
C152     C      0.109350000000     0.479260000000     0.732010000000     0.0564814  
C153     C      0.093860000000     0.453130000000     0.716060000000     0.0510258  
C154     C      0.359520000000     0.478230000000     0.768020000000     0.0335608  
C155     C      0.358970000000     0.025730000000     0.738540000000     0.0271344  
C156     C      0.392590000000     0.479230000000     0.768820000000     0.0340979  
C157     C      0.392010000000     0.025350000000     0.736900000000     0.052995   
C158     C      0.407620000000     0.051390000000     0.720910000000     0.049907   
C159     C      0.479040000000     0.360220000000     0.735580000000     0.0332782  
C160     C      0.024860000000     0.359790000000     0.767600000000     0.0270049  
C161     C      0.480170000000     0.393190000000     0.734430000000     0.035085   
C162     C      0.024620000000     0.392940000000     0.768620000000     0.0526886  
C163     C      0.049990000000     0.408670000000     0.785490000000     0.0511848  
C164     C      0.478600000000     0.142710000000     0.766690000000     0.0394422  
C165     C      0.023480000000     0.143270000000     0.733360000000     0.0313696  
C166     C      0.479590000000     0.109710000000     0.767440000000     0.0389012  
C167     C      0.023010000000     0.110150000000     0.731940000000     0.0531499  
C168     C      0.047730000000     0.094500000000     0.714050000000     0.0490656  
C169     C      0.500580000000     0.561240000000     0.249820000000     0.481351   
C170     C      0.501530000000     0.941760000000     0.251280000000     0.477993   
C171     C      0.440910000000     0.001320000000     0.251830000000     0.464708   
C172     C      0.060350000000     0.001810000000     0.249260000000     0.466216   
C173     C      0.000990000000     0.691650000000     0.250730000000     0.463143   
C174     C      0.001470000000     0.811330000000     0.251600000000     0.458542   
C175     C      0.500930000000     0.751310000000     0.191490000000     0.479233   
C176     C      0.501380000000     0.750640000000     0.311010000000     0.478942   
C177     C      0.310540000000     0.501920000000     0.253470000000     0.478232   
C178     C      0.190740000000     0.503230000000     0.248670000000     0.478675   
C179     C      0.253760000000     0.002620000000     0.191380000000     0.467916   
C180     C      0.247730000000     0.002430000000     0.311120000000     0.466195   
C181     C      0.253080000000     0.501390000000     0.061110000000     0.48041    
C182     C      0.246780000000     0.501210000000     0.441450000000     0.482213   
C183     C      0.246050000000     0.561150000000     0.501300000000     0.481557   
C184     C      0.253840000000     0.941580000000     0.501030000000     0.481603   
C185     C      0.000350000000     0.749850000000     0.441470000000     0.457003   
C186     C      0.001680000000     0.750250000000     0.061130000000     0.452621   
C187     C      0.060830000000     0.751930000000     0.000200000000     0.451909   
C188     C      0.441260000000     0.748250000000     0.002050000000     0.464276   
C189     C      0.254130000000     0.811160000000     0.001370000000     0.467421   
C190     C      0.247580000000     0.691360000000     0.000790000000     0.465542   
C191     C      0.191220000000     0.754130000000     0.499400000000     0.479962   
C192     C      0.310850000000     0.748180000000     0.502710000000     0.477398   
C193     C      0.359810000000     0.762780000000     0.026100000000     0.0322661  
C194     C      0.359180000000     0.731010000000     0.480110000000     0.0296686  
C195     C      0.392820000000     0.764120000000     0.024640000000     0.0320753  
C196     C      0.392300000000     0.730020000000     0.480120000000     0.0526901  
C197     C      0.407840000000     0.713050000000     0.454680000000     0.0477655  
C198     C      0.110210000000     0.731260000000     0.016600000000     0.0251752  
C199     C      0.108730000000     0.775070000000     0.481900000000     0.0288826  
C200     C      0.143120000000     0.732900000000     0.017250000000     0.0285126  
C201     C      0.141930000000     0.775050000000     0.480290000000     0.0530884  
C202     C      0.157230000000     0.799120000000     0.461270000000     0.0486137  
C203     C      0.239000000000     0.860100000000     0.024080000000     0.0334396  
C204     C      0.272110000000     0.859600000000     0.979040000000     0.0391281  
C205     C      0.238070000000     0.893060000000     0.023010000000     0.0355624  
C206     C      0.273480000000     0.892820000000     0.979550000000     0.0609039  
C207     C      0.291390000000     0.908670000000     0.955000000000     0.0513136  
C208     C      0.259160000000     0.642300000000     0.976380000000     0.0406519  
C209     C      0.231040000000     0.643230000000     0.024710000000     0.0282374  
C210     C      0.259670000000     0.609320000000     0.977350000000     0.0422712  
C211     C      0.228980000000     0.610050000000     0.024260000000     0.0517653  
C212     C      0.213230000000     0.594350000000     0.050350000000     0.04531    
C213     C      0.261910000000     0.525170000000     0.360330000000     0.0337227  
C214     C      0.229870000000     0.979360000000     0.359220000000     0.0376685  
C215     C      0.262560000000     0.523890000000     0.393270000000     0.0363721  
C216     C      0.228170000000     0.979600000000     0.392400000000     0.061023   
C217     C      0.210680000000     0.954540000000     0.407920000000     0.0511064  
C218     C      0.234500000000     0.982210000000     0.110190000000     0.0436959  
C219     C      0.275200000000     0.520520000000     0.109030000000     0.0322595  
C220     C      0.235840000000     0.981690000000     0.143130000000     0.0418945  
C221     C      0.274360000000     0.522440000000     0.142200000000     0.0537867  
C222     C      0.295810000000     0.544270000000     0.157600000000     0.0488132  
C223     C      0.483660000000     0.771780000000     0.392560000000     0.0359248  
C224     C      0.017690000000     0.727440000000     0.393050000000     0.0283022  
C225     C      0.483010000000     0.770890000000     0.359550000000     0.034722   
C226     C      0.019160000000     0.728020000000     0.359930000000     0.0510949  
C227     C      0.037450000000     0.703580000000     0.344280000000     0.0479876  
C228     C      0.517490000000     0.773090000000     0.109920000000     0.0331231  
C229     C      0.485350000000     0.727340000000     0.109640000000     0.0286315  
C230     C      0.518340000000     0.772270000000     0.142920000000     0.0336899  
C231     C      0.483930000000     0.727970000000     0.142740000000     0.0528351  
C232     C      0.466690000000     0.702880000000     0.158550000000     0.0489698  
C233     C      0.141670000000     0.526490000000     0.263120000000     0.0359805  
C234     C      0.142470000000     0.979520000000     0.232800000000     0.0388219  
C235     C      0.108690000000     0.524890000000     0.264630000000     0.0384684  
C236     C      0.109350000000     0.979260000000     0.232010000000     0.0623745  
C237     C      0.093860000000     0.953130000000     0.216060000000     0.0516164  
C238     C      0.359520000000     0.978230000000     0.268020000000     0.0406803  
C239     C      0.358970000000     0.525730000000     0.238540000000     0.0286556  
C240     C      0.392590000000     0.979230000000     0.268820000000     0.0409809  
C241     C      0.392010000000     0.525350000000     0.236900000000     0.054383   
C242     C      0.407620000000     0.551390000000     0.220910000000     0.0500291  
C243     C      0.479040000000     0.860220000000     0.235580000000     0.0335254  
C244     C      0.024860000000     0.859790000000     0.267600000000     0.0271815  
C245     C      0.480170000000     0.893190000000     0.234430000000     0.0350958  
C246     C      0.024620000000     0.892940000000     0.268620000000     0.0526441  
C247     C      0.049990000000     0.908670000000     0.285490000000     0.0520263  
C248     C      0.478600000000     0.642720000000     0.266690000000     0.0394533  
C249     C      0.023480000000     0.643270000000     0.233360000000     0.0313564  
C250     C      0.479590000000     0.609710000000     0.267440000000     0.0390056  
C251     C      0.023010000000     0.610150000000     0.231940000000     0.0532656  
C252     C      0.047730000000     0.594510000000     0.214050000000     0.0493523  
C253     C      0.500580000000     0.561240000000     0.749820000000     0.481322   
C254     C      0.501530000000     0.941760000000     0.751280000000     0.477958   
C255     C      0.440910000000     0.001320000000     0.751830000000     0.464662   
C256     C      0.060350000000     0.001810000000     0.749260000000     0.466146   
C257     C      0.000990000000     0.691650000000     0.750720000000     0.463161   
C258     C      0.001470000000     0.811330000000     0.751600000000     0.458584   
C259     C      0.500930000000     0.751310000000     0.691500000000     0.479315   
C260     C      0.501380000000     0.750640000000     0.811010000000     0.478982   
C261     C      0.310540000000     0.501920000000     0.753470000000     0.478245   
C262     C      0.190740000000     0.503230000000     0.748670000000     0.478686   
C263     C      0.253760000000     0.002620000000     0.691380000000     0.467942   
C264     C      0.247730000000     0.002430000000     0.811130000000     0.466138   
C265     C      0.253080000000     0.501390000000     0.561110000000     0.480045   
C266     C      0.246780000000     0.501210000000     0.941450000000     0.481991   
C267     C      0.246050000000     0.561150000000     0.001300000000     0.470005   
C268     C      0.253840000000     0.941580000000     0.001030000000     0.469851   
C269     C      0.000350000000     0.749850000000     0.941470000000     0.45444    
C270     C      0.001680000000     0.750250000000     0.561130000000     0.454155   
C271     C      0.060830000000     0.751930000000     0.500200000000     0.47334    
C272     C      0.441260000000     0.748250000000     0.502040000000     0.478079   
C273     C      0.254130000000     0.811160000000     0.501370000000     0.478955   
C274     C      0.247580000000     0.691360000000     0.500790000000     0.476991   
C275     C      0.191220000000     0.754130000000     0.999400000000     0.491717   
C276     C      0.310850000000     0.748180000000     0.002710000000     0.466096   
C277     C      0.359810000000     0.762780000000     0.526100000000     0.0338955  
C278     C      0.359180000000     0.731010000000     0.980110000000     0.0367657  
C279     C      0.392820000000     0.764120000000     0.524640000000     0.0339563  
C280     C      0.392300000000     0.730020000000     0.980110000000     0.0584305  
C281     C      0.407840000000     0.713050000000     0.954680000000     0.0486375  
C282     C      0.110210000000     0.731260000000     0.516600000000     0.0331582  
C283     C      0.108730000000     0.775070000000     0.981900000000     0.0294734  
C284     C      0.143120000000     0.732900000000     0.517250000000     0.0344983  
C285     C      0.141930000000     0.775050000000     0.980290000000     0.0553311  
C286     C      0.157230000000     0.799120000000     0.961270000000     0.0499744  
C287     C      0.239000000000     0.860100000000     0.524080000000     0.0352062  
C288     C      0.272110000000     0.859600000000     0.479040000000     0.0321676  
C289     C      0.238070000000     0.893060000000     0.523010000000     0.0374524  
C290     C      0.273480000000     0.892820000000     0.479550000000     0.0549705  
C291     C      0.291390000000     0.908670000000     0.455000000000     0.0506096  
C292     C      0.259160000000     0.642300000000     0.476380000000     0.0340178  
C293     C      0.231040000000     0.643230000000     0.524710000000     0.0298997  
C294     C      0.259670000000     0.609320000000     0.477350000000     0.0354677  
C295     C      0.228980000000     0.610050000000     0.524260000000     0.0532313  
C296     C      0.213230000000     0.594350000000     0.550350000000     0.0458217  
C297     C      0.261910000000     0.525170000000     0.860330000000     0.033889   
C298     C      0.229870000000     0.979360000000     0.859210000000     0.0379141  
C299     C      0.262560000000     0.523890000000     0.893270000000     0.0367233  
C300     C      0.228170000000     0.979600000000     0.892400000000     0.0611874  
C301     C      0.210680000000     0.954540000000     0.907920000000     0.0521862  
C302     C      0.234500000000     0.982210000000     0.610190000000     0.0439601  
C303     C      0.275200000000     0.520520000000     0.609030000000     0.032402   
C304     C      0.235840000000     0.981690000000     0.643130000000     0.0420176  
C305     C      0.274360000000     0.522440000000     0.642200000000     0.0539318  
C306     C      0.295810000000     0.544270000000     0.657610000000     0.0491864  
C307     C      0.483660000000     0.771780000000     0.892560000000     0.035987   
C308     C      0.017690000000     0.727440000000     0.893050000000     0.0283922  
C309     C      0.483010000000     0.770890000000     0.859550000000     0.0350027  
C310     C      0.019160000000     0.728020000000     0.859930000000     0.0513388  
C311     C      0.037450000000     0.703580000000     0.844280000000     0.0484094  
C312     C      0.517490000000     0.773090000000     0.609910000000     0.0333991  
C313     C      0.485350000000     0.727340000000     0.609640000000     0.0288633  
C314     C      0.518340000000     0.772270000000     0.642920000000     0.033762   
C315     C      0.483930000000     0.727970000000     0.642740000000     0.0528752  
C316     C      0.466690000000     0.702880000000     0.658550000000     0.0492475  
C317     C      0.141670000000     0.526490000000     0.763120000000     0.0360555  
C318     C      0.142470000000     0.979520000000     0.732800000000     0.0388859  
C319     C      0.108690000000     0.524890000000     0.764630000000     0.0385598  
C320     C      0.109350000000     0.979260000000     0.732010000000     0.0624387  
C321     C      0.093860000000     0.953130000000     0.716060000000     0.0517674  
C322     C      0.359520000000     0.978230000000     0.768020000000     0.0407725  
C323     C      0.358970000000     0.525730000000     0.738540000000     0.0287342  
C324     C      0.392590000000     0.979230000000     0.768820000000     0.0410874  
C325     C      0.392010000000     0.525350000000     0.736900000000     0.0544615  
C326     C      0.407620000000     0.551390000000     0.720910000000     0.0502279  
C327     C      0.479040000000     0.860220000000     0.735580000000     0.0336043  
C328     C      0.024860000000     0.859790000000     0.767600000000     0.0272409  
C329     C      0.480170000000     0.893190000000     0.734430000000     0.0351815  
C330     C      0.024620000000     0.892940000000     0.768620000000     0.0527335  
C331     C      0.049990000000     0.908670000000     0.785490000000     0.0522511  
C332     C      0.478600000000     0.642720000000     0.766690000000     0.0395239  
C333     C      0.023480000000     0.643270000000     0.733360000000     0.0313989  
C334     C      0.479590000000     0.609710000000     0.767440000000     0.0390878  
C335     C      0.023010000000     0.610150000000     0.731940000000     0.0533376  
C336     C      0.047730000000     0.594510000000     0.714050000000     0.0495179  
C337     C      0.000580000000     0.061240000000     0.249820000000     0.458055   
C338     C      0.001530000000     0.441760000000     0.251280000000     0.45911    
C339     C      0.940910000000     0.501320000000     0.251830000000     0.474616   
C340     C      0.560350000000     0.501810000000     0.249260000000     0.482677   
C341     C      0.500990000000     0.191650000000     0.250730000000     0.481396   
C342     C      0.501470000000     0.311330000000     0.251600000000     0.476611   
C343     C      0.000930000000     0.251310000000     0.191490000000     0.460896   
C344     C      0.001380000000     0.250640000000     0.311010000000     0.460711   
C345     C      0.810540000000     0.001920000000     0.253470000000     0.46674    
C346     C      0.690740000000     0.003230000000     0.248670000000     0.466821   
C347     C      0.753760000000     0.502620000000     0.191380000000     0.479671   
C348     C      0.747730000000     0.502430000000     0.311120000000     0.478009   
C349     C      0.753080000000     0.001390000000     0.061110000000     0.468864   
C350     C      0.746780000000     0.001210000000     0.441450000000     0.47001    
C351     C      0.746050000000     0.061150000000     0.501300000000     0.481604   
C352     C      0.753840000000     0.441580000000     0.501030000000     0.481764   
C353     C      0.500350000000     0.249850000000     0.441470000000     0.47884    
C354     C      0.501680000000     0.250250000000     0.061130000000     0.474313   
C355     C      0.560840000000     0.251930000000     0.000200000000     0.454463   
C356     C      0.941260000000     0.248250000000     0.002050000000     0.460539   
C357     C      0.754130000000     0.311160000000     0.001370000000     0.467453   
C358     C      0.747580000000     0.191360000000     0.000790000000     0.465601   
C359     C      0.691220000000     0.254130000000     0.499400000000     0.47995    
C360     C      0.810850000000     0.248180000000     0.502710000000     0.477486   
C361     C      0.859810000000     0.262780000000     0.026100000000     0.0327011  
C362     C      0.859180000000     0.231010000000     0.480110000000     0.0300203  
C363     C      0.892820000000     0.264120000000     0.024640000000     0.0321901  
C364     C      0.892300000000     0.230020000000     0.480120000000     0.0527925  
C365     C      0.907840000000     0.213050000000     0.454680000000     0.0494943  
C366     C      0.610200000000     0.231260000000     0.016600000000     0.0254912  
C367     C      0.608730000000     0.275070000000     0.481900000000     0.0291546  
C368     C      0.643120000000     0.232900000000     0.017250000000     0.028534   
C369     C      0.641920000000     0.275050000000     0.480290000000     0.0530575  
C370     C      0.657230000000     0.299120000000     0.461270000000     0.0488316  
C371     C      0.739000000000     0.360100000000     0.024080000000     0.0334039  
C372     C      0.772110000000     0.359600000000     0.979040000000     0.0390443  
C373     C      0.738070000000     0.393060000000     0.023010000000     0.0353089  
C374     C      0.773480000000     0.392820000000     0.979550000000     0.0608466  
C375     C      0.791390000000     0.408670000000     0.955000000000     0.0506038  
C376     C      0.759160000000     0.142300000000     0.976380000000     0.0406494  
C377     C      0.731040000000     0.143230000000     0.024710000000     0.028221   
C378     C      0.759670000000     0.109320000000     0.977350000000     0.0420934  
C379     C      0.728980000000     0.110050000000     0.024260000000     0.0517428  
C380     C      0.713230000000     0.094350000000     0.050350000000     0.0447802  
C381     C      0.761910000000     0.025170000000     0.360330000000     0.0321895  
C382     C      0.729870000000     0.479360000000     0.359220000000     0.0304814  
C383     C      0.762560000000     0.023890000000     0.393270000000     0.0346167  
C384     C      0.728170000000     0.479600000000     0.392400000000     0.0549693  
C385     C      0.710680000000     0.454540000000     0.407920000000     0.0506239  
C386     C      0.734500000000     0.482210000000     0.110190000000     0.036762   
C387     C      0.775200000000     0.020520000000     0.109030000000     0.0306211  
C388     C      0.735840000000     0.481690000000     0.143130000000     0.0349147  
C389     C      0.774360000000     0.022440000000     0.142200000000     0.052491   
C390     C      0.795810000000     0.044270000000     0.157600000000     0.0485584  
C391     C      0.983660000000     0.271780000000     0.392560000000     0.0464656  
C392     C      0.517690000000     0.227440000000     0.393050000000     0.0313875  
C393     C      0.983010000000     0.270890000000     0.359550000000     0.0457714  
C394     C      0.519160000000     0.228020000000     0.359930000000     0.0532487  
C395     C      0.537450000000     0.203580000000     0.344280000000     0.0495848  
C396     C      0.017490000000     0.273090000000     0.109920000000     0.0301261  
C397     C      0.985350000000     0.227340000000     0.109640000000     0.0396756  
C398     C      0.018340000000     0.272270000000     0.142920000000     0.030827   
C399     C      0.983930000000     0.227970000000     0.142740000000     0.0624127  
C400     C      0.966690000000     0.202880000000     0.158550000000     0.0513978  
C401     C      0.641670000000     0.026490000000     0.263120000000     0.0343659  
C402     C      0.642470000000     0.479520000000     0.232800000000     0.0316228  
C403     C      0.608690000000     0.024890000000     0.264630000000     0.0368202  
C404     C      0.609350000000     0.479260000000     0.232010000000     0.0566675  
C405     C      0.593860000000     0.453130000000     0.216060000000     0.0514803  
C406     C      0.859520000000     0.478230000000     0.268020000000     0.0340024  
C407     C      0.858970000000     0.025730000000     0.238540000000     0.0274793  
C408     C      0.892590000000     0.479230000000     0.268820000000     0.0342285  
C409     C      0.892010000000     0.025350000000     0.236900000000     0.0530508  
C410     C      0.907620000000     0.051390000000     0.220910000000     0.0515059  
C411     C      0.979040000000     0.360220000000     0.235580000000     0.0442165  
C412     C      0.524860000000     0.359790000000     0.267600000000     0.0296032  
C413     C      0.980170000000     0.393190000000     0.234430000000     0.0457568  
C414     C      0.524620000000     0.392940000000     0.268620000000     0.0549385  
C415     C      0.549990000000     0.408670000000     0.285490000000     0.0516566  
C416     C      0.978600000000     0.142710000000     0.266690000000     0.0502633  
C417     C      0.523480000000     0.143270000000     0.233360000000     0.0341734  
C418     C      0.979590000000     0.109710000000     0.267440000000     0.0493068  
C419     C      0.523010000000     0.110150000000     0.231940000000     0.0555245  
C420     C      0.547730000000     0.094500000000     0.214050000000     0.0498326  
C421     C      0.000580000000     0.061240000000     0.749820000000     0.458054   
C422     C      0.001530000000     0.441760000000     0.751280000000     0.4591     
C423     C      0.940910000000     0.501320000000     0.751830000000     0.474599   
C424     C      0.560350000000     0.501810000000     0.749260000000     0.482636   
C425     C      0.500990000000     0.191650000000     0.750720000000     0.481394   
C426     C      0.501470000000     0.311330000000     0.751600000000     0.476635   
C427     C      0.000930000000     0.251310000000     0.691500000000     0.460977   
C428     C      0.001380000000     0.250640000000     0.811010000000     0.46078    
C429     C      0.810540000000     0.001920000000     0.753470000000     0.466727   
C430     C      0.690740000000     0.003230000000     0.748670000000     0.466805   
C431     C      0.753760000000     0.502620000000     0.691380000000     0.479733   
C432     C      0.747730000000     0.502430000000     0.811130000000     0.477966   
C433     C      0.753080000000     0.001390000000     0.561110000000     0.468452   
C434     C      0.746780000000     0.001210000000     0.941450000000     0.469784   
C435     C      0.746050000000     0.061150000000     0.001300000000     0.470127   
C436     C      0.753840000000     0.441580000000     0.001030000000     0.470041   
C437     C      0.500350000000     0.249850000000     0.941470000000     0.47619    
C438     C      0.501680000000     0.250250000000     0.561130000000     0.475879   
C439     C      0.560840000000     0.251930000000     0.500200000000     0.475874   
C440     C      0.941260000000     0.248250000000     0.502040000000     0.474243   
C441     C      0.754130000000     0.311160000000     0.501370000000     0.47895    
C442     C      0.747580000000     0.191360000000     0.500790000000     0.477001   
C443     C      0.691220000000     0.254130000000     0.999400000000     0.491665   
C444     C      0.810850000000     0.248180000000     0.002710000000     0.466234   
C445     C      0.859810000000     0.262780000000     0.526100000000     0.0343231  
C446     C      0.859180000000     0.231010000000     0.980110000000     0.0370792  
C447     C      0.892820000000     0.264120000000     0.524640000000     0.0340604  
C448     C      0.892300000000     0.230020000000     0.980110000000     0.0584925  
C449     C      0.907840000000     0.213050000000     0.954680000000     0.0503543  
C450     C      0.610200000000     0.231260000000     0.516600000000     0.0334687  
C451     C      0.608730000000     0.275070000000     0.981900000000     0.0297381  
C452     C      0.643120000000     0.232900000000     0.517250000000     0.0345022  
C453     C      0.641920000000     0.275050000000     0.980290000000     0.0552973  
C454     C      0.657230000000     0.299120000000     0.961270000000     0.0501883  
C455     C      0.739000000000     0.360100000000     0.524080000000     0.0351663  
C456     C      0.772110000000     0.359600000000     0.479040000000     0.0321063  
C457     C      0.738070000000     0.393060000000     0.523010000000     0.0371939  
C458     C      0.773480000000     0.392820000000     0.479550000000     0.054927   
C459     C      0.791390000000     0.408670000000     0.455000000000     0.0499039  
C460     C      0.759160000000     0.142300000000     0.476380000000     0.0340477  
C461     C      0.731040000000     0.143230000000     0.524710000000     0.0298746  
C462     C      0.759670000000     0.109320000000     0.477350000000     0.0353318  
C463     C      0.728980000000     0.110050000000     0.524260000000     0.0532013  
C464     C      0.713230000000     0.094350000000     0.550350000000     0.045287   
C465     C      0.761910000000     0.025170000000     0.860330000000     0.032353   
C466     C      0.729870000000     0.479360000000     0.859210000000     0.0307164  
C467     C      0.762560000000     0.023890000000     0.893270000000     0.0349636  
C468     C      0.728170000000     0.479600000000     0.892400000000     0.0551335  
C469     C      0.710680000000     0.454540000000     0.907920000000     0.0517023  
C470     C      0.734500000000     0.482210000000     0.610190000000     0.0369978  
C471     C      0.775200000000     0.020520000000     0.609030000000     0.030756   
C472     C      0.735840000000     0.481690000000     0.643130000000     0.0350197  
C473     C      0.774360000000     0.022440000000     0.642200000000     0.0526297  
C474     C      0.795810000000     0.044270000000     0.657610000000     0.0489271  
C475     C      0.983660000000     0.271780000000     0.892560000000     0.0464877  
C476     C      0.517690000000     0.227440000000     0.893050000000     0.0314692  
C477     C      0.983010000000     0.270890000000     0.859550000000     0.0460244  
C478     C      0.519160000000     0.228020000000     0.859930000000     0.0534873  
C479     C      0.537450000000     0.203580000000     0.844280000000     0.0500027  
C480     C      0.017490000000     0.273090000000     0.609910000000     0.0303999  
C481     C      0.985350000000     0.227340000000     0.609640000000     0.0399126  
C482     C      0.018340000000     0.272270000000     0.642920000000     0.030896   
C483     C      0.983930000000     0.227970000000     0.642740000000     0.0624495  
C484     C      0.966690000000     0.202880000000     0.658550000000     0.0516717  
C485     C      0.641670000000     0.026490000000     0.763120000000     0.0344369  
C486     C      0.642470000000     0.479520000000     0.732800000000     0.0316741  
C487     C      0.608690000000     0.024890000000     0.764630000000     0.0369068  
C488     C      0.609350000000     0.479260000000     0.732010000000     0.0567212  
C489     C      0.593860000000     0.453130000000     0.716060000000     0.0516301  
C490     C      0.859520000000     0.478230000000     0.768020000000     0.0340817  
C491     C      0.858970000000     0.025730000000     0.738540000000     0.027553   
C492     C      0.892590000000     0.479230000000     0.768820000000     0.0343226  
C493     C      0.892010000000     0.025350000000     0.736900000000     0.0531253  
C494     C      0.907620000000     0.051390000000     0.720910000000     0.0517005  
C495     C      0.979040000000     0.360220000000     0.735580000000     0.0442806  
C496     C      0.524860000000     0.359790000000     0.767600000000     0.0296601  
C497     C      0.980170000000     0.393190000000     0.734430000000     0.0458282  
C498     C      0.524620000000     0.392940000000     0.768620000000     0.0550255  
C499     C      0.549990000000     0.408670000000     0.785490000000     0.0518789  
C500     C      0.978600000000     0.142710000000     0.766690000000     0.0503178  
C501     C      0.523480000000     0.143270000000     0.733360000000     0.0342136  
C502     C      0.979590000000     0.109710000000     0.767440000000     0.0493739  
C503     C      0.523010000000     0.110150000000     0.731940000000     0.0555944  
C504     C      0.547730000000     0.094500000000     0.714050000000     0.0499976  
C505     C      0.000580000000     0.561240000000     0.249820000000     0.459483   
C506     C      0.001530000000     0.941760000000     0.251280000000     0.456401   
C507     C      0.940910000000     0.001320000000     0.251830000000     0.460528   
C508     C      0.560350000000     0.001810000000     0.249260000000     0.468413   
C509     C      0.500990000000     0.691650000000     0.250730000000     0.481395   
C510     C      0.501470000000     0.811330000000     0.251600000000     0.476671   
C511     C      0.000930000000     0.751310000000     0.191490000000     0.460928   
C512     C      0.001380000000     0.750640000000     0.311010000000     0.460739   
C513     C      0.810540000000     0.501920000000     0.253470000000     0.478346   
C514     C      0.690740000000     0.503230000000     0.248670000000     0.478687   
C515     C      0.753760000000     0.002620000000     0.191380000000     0.467955   
C516     C      0.747730000000     0.002430000000     0.311120000000     0.466251   
C517     C      0.753080000000     0.501390000000     0.061110000000     0.480698   
C518     C      0.746780000000     0.501210000000     0.441450000000     0.482155   
C519     C      0.746050000000     0.561150000000     0.501300000000     0.481202   
C520     C      0.753840000000     0.941580000000     0.501030000000     0.481563   
C521     C      0.500350000000     0.749850000000     0.441470000000     0.478801   
C522     C      0.501680000000     0.750250000000     0.061130000000     0.474287   
C523     C      0.560840000000     0.751930000000     0.000200000000     0.454093   
C524     C      0.941260000000     0.748250000000     0.002050000000     0.460188   
C525     C      0.754130000000     0.811160000000     0.001370000000     0.46748    
C526     C      0.747580000000     0.691360000000     0.000790000000     0.465595   
C527     C      0.691220000000     0.754130000000     0.499400000000     0.479964   
C528     C      0.810850000000     0.748180000000     0.502710000000     0.477512   
C529     C      0.859810000000     0.762780000000     0.026100000000     0.0327899  
C530     C      0.859180000000     0.731010000000     0.480110000000     0.0300931  
C531     C      0.892820000000     0.764120000000     0.024640000000     0.0322865  
C532     C      0.892300000000     0.730020000000     0.480120000000     0.0528381  
C533     C      0.907840000000     0.713050000000     0.454680000000     0.049698   
C534     C      0.610200000000     0.731260000000     0.016600000000     0.0255368  
C535     C      0.608730000000     0.775070000000     0.481900000000     0.0292141  
C536     C      0.643120000000     0.732900000000     0.017250000000     0.0286068  
C537     C      0.641920000000     0.775050000000     0.480290000000     0.0531185  
C538     C      0.657230000000     0.799120000000     0.461270000000     0.0489942  
C539     C      0.739000000000     0.860100000000     0.024080000000     0.0335575  
C540     C      0.772110000000     0.859600000000     0.979040000000     0.0392471  
C541     C      0.738070000000     0.893060000000     0.023010000000     0.0356922  
C542     C      0.773480000000     0.892820000000     0.979550000000     0.0610459  
C543     C      0.791390000000     0.908670000000     0.955000000000     0.0517731  
C544     C      0.759160000000     0.642300000000     0.976380000000     0.0407639  
C545     C      0.731040000000     0.643230000000     0.024710000000     0.0283529  
C546     C      0.759670000000     0.609320000000     0.977350000000     0.0423994  
C547     C      0.728980000000     0.610050000000     0.024260000000     0.0518665  
C548     C      0.713230000000     0.594350000000     0.050350000000     0.0455956  
C549     C      0.761910000000     0.525170000000     0.360330000000     0.0338505  
C550     C      0.729870000000     0.979360000000     0.359220000000     0.0377399  
C551     C      0.762560000000     0.523890000000     0.393270000000     0.036524   
C552     C      0.728170000000     0.979600000000     0.392400000000     0.0611135  
C553     C      0.710680000000     0.954540000000     0.407920000000     0.0513496  
C554     C      0.734500000000     0.982210000000     0.110190000000     0.0438041  
C555     C      0.775200000000     0.520520000000     0.109030000000     0.0324309  
C556     C      0.735840000000     0.981690000000     0.143130000000     0.0419854  
C557     C      0.774360000000     0.522440000000     0.142200000000     0.0538881  
C558     C      0.795810000000     0.544270000000     0.157600000000     0.0491643  
C559     C      0.983660000000     0.771780000000     0.392560000000     0.0465252  
C560     C      0.517690000000     0.727440000000     0.393050000000     0.0314217  
C561     C      0.983010000000     0.770890000000     0.359550000000     0.0458335  
C562     C      0.519160000000     0.728020000000     0.359930000000     0.0533074  
C563     C      0.537450000000     0.703580000000     0.344280000000     0.0497464  
C564     C      0.017490000000     0.773090000000     0.109920000000     0.0302265  
C565     C      0.985350000000     0.727340000000     0.109640000000     0.0397374  
C566     C      0.018340000000     0.772270000000     0.142920000000     0.0309183  
C567     C      0.983930000000     0.727970000000     0.142740000000     0.062443   
C568     C      0.966690000000     0.702880000000     0.158550000000     0.051558   
C569     C      0.641670000000     0.526490000000     0.263120000000     0.0360515  
C570     C      0.642470000000     0.979520000000     0.232800000000     0.038855   
C571     C      0.608690000000     0.524890000000     0.264630000000     0.0387394  
C572     C      0.609350000000     0.979260000000     0.232010000000     0.062615   
C573     C      0.593860000000     0.953130000000     0.216060000000     0.0522181  
C574     C      0.859520000000     0.978230000000     0.268020000000     0.0411786  
C575     C      0.858970000000     0.525730000000     0.238540000000     0.029072   
C576     C      0.892590000000     0.979230000000     0.268820000000     0.0411737  
C577     C      0.892010000000     0.525350000000     0.236900000000     0.0545094  
C578     C      0.907620000000     0.551390000000     0.220910000000     0.0518269  
C579     C      0.979040000000     0.860220000000     0.235580000000     0.0445158  
C580     C      0.524860000000     0.859790000000     0.267600000000     0.0298337  
C581     C      0.980170000000     0.893190000000     0.234430000000     0.0458135  
C582     C      0.524620000000     0.892940000000     0.268620000000     0.0549775  
C583     C      0.549990000000     0.908670000000     0.285490000000     0.052722   
C584     C      0.978600000000     0.642720000000     0.266690000000     0.0503497  
C585     C      0.523480000000     0.643270000000     0.233360000000     0.034203   
C586     C      0.979590000000     0.609710000000     0.267440000000     0.0495017  
C587     C      0.523010000000     0.610150000000     0.231940000000     0.0557145  
C588     C      0.547730000000     0.594510000000     0.214050000000     0.0502839  
C589     C      0.000580000000     0.561240000000     0.749820000000     0.459485   
C590     C      0.001530000000     0.941760000000     0.751280000000     0.456385   
C591     C      0.940910000000     0.001320000000     0.751830000000     0.460486   
C592     C      0.560350000000     0.001810000000     0.749260000000     0.468341   
C593     C      0.500990000000     0.691650000000     0.750720000000     0.481393   
C594     C      0.501470000000     0.811330000000     0.751600000000     0.476695   
C595     C      0.000930000000     0.751310000000     0.691500000000     0.46101    
C596     C      0.001380000000     0.750640000000     0.811010000000     0.460809   
C597     C      0.810540000000     0.501920000000     0.753470000000     0.478359   
C598     C      0.690740000000     0.503230000000     0.748670000000     0.478698   
C599     C      0.753760000000     0.002620000000     0.691380000000     0.467981   
C600     C      0.747730000000     0.002430000000     0.811130000000     0.466193   
C601     C      0.753080000000     0.501390000000     0.561110000000     0.480335   
C602     C      0.746780000000     0.501210000000     0.941450000000     0.481933   
C603     C      0.746050000000     0.561150000000     0.001300000000     0.469676   
C604     C      0.753840000000     0.941580000000     0.001030000000     0.469835   
C605     C      0.500350000000     0.749850000000     0.941470000000     0.476146   
C606     C      0.501680000000     0.750250000000     0.561130000000     0.475857   
C607     C      0.560840000000     0.751930000000     0.500200000000     0.475538   
C608     C      0.941260000000     0.748250000000     0.502040000000     0.473914   
C609     C      0.754130000000     0.811160000000     0.501370000000     0.478998   
C610     C      0.747580000000     0.691360000000     0.500790000000     0.477028   
C611     C      0.691220000000     0.754130000000     0.999400000000     0.491698   
C612     C      0.810850000000     0.748180000000     0.002710000000     0.466234   
C613     C      0.859810000000     0.762780000000     0.526100000000     0.0344161  
C614     C      0.859180000000     0.731010000000     0.980110000000     0.0371648  
C615     C      0.892820000000     0.764120000000     0.524640000000     0.0341609  
C616     C      0.892300000000     0.730020000000     0.980110000000     0.058549   
C617     C      0.907840000000     0.713050000000     0.954680000000     0.0505594  
C618     C      0.610200000000     0.731260000000     0.516600000000     0.0335308  
C619     C      0.608730000000     0.775070000000     0.981900000000     0.0297973  
C620     C      0.643120000000     0.732900000000     0.517250000000     0.034588   
C621     C      0.641920000000     0.775050000000     0.980290000000     0.0553613  
C622     C      0.657230000000     0.799120000000     0.961270000000     0.0503508  
C623     C      0.739000000000     0.860100000000     0.524080000000     0.0353226  
C624     C      0.772110000000     0.859600000000     0.479040000000     0.0323032  
C625     C      0.738070000000     0.893060000000     0.523010000000     0.0375803  
C626     C      0.773480000000     0.892820000000     0.479550000000     0.0551266  
C627     C      0.791390000000     0.908670000000     0.455000000000     0.051074   
C628     C      0.759160000000     0.642300000000     0.476380000000     0.0341443  
C629     C      0.731040000000     0.643230000000     0.524710000000     0.0300138  
C630     C      0.759670000000     0.609320000000     0.477350000000     0.0356103  
C631     C      0.728980000000     0.610050000000     0.524260000000     0.0533311  
C632     C      0.713230000000     0.594350000000     0.550350000000     0.0461085  
C633     C      0.761910000000     0.525170000000     0.860330000000     0.0340162  
C634     C      0.729870000000     0.979360000000     0.859210000000     0.037985   
C635     C      0.762560000000     0.523890000000     0.893270000000     0.036874   
C636     C      0.728170000000     0.979600000000     0.892400000000     0.0612775  
C637     C      0.710680000000     0.954540000000     0.907920000000     0.0524273  
C638     C      0.734500000000     0.982210000000     0.610190000000     0.044068   
C639     C      0.775200000000     0.520520000000     0.609030000000     0.0325733  
C640     C      0.735840000000     0.981690000000     0.643130000000     0.0421085  
C641     C      0.774360000000     0.522440000000     0.642200000000     0.054033   
C642     C      0.795810000000     0.544270000000     0.657610000000     0.0495367  
C643     C      0.983660000000     0.771780000000     0.892560000000     0.0465473  
C644     C      0.517690000000     0.727440000000     0.893050000000     0.0315031  
C645     C      0.983010000000     0.770890000000     0.859550000000     0.0460868  
C646     C      0.519160000000     0.728020000000     0.859930000000     0.0535466  
C647     C      0.537450000000     0.703580000000     0.844280000000     0.0501654  
C648     C      0.017490000000     0.773090000000     0.609910000000     0.0305009  
C649     C      0.985350000000     0.727340000000     0.609640000000     0.0399751  
C650     C      0.018340000000     0.772270000000     0.642920000000     0.0309878  
C651     C      0.983930000000     0.727970000000     0.642740000000     0.0624802  
C652     C      0.966690000000     0.702880000000     0.658550000000     0.0518333  
C653     C      0.641670000000     0.526490000000     0.763120000000     0.0361265  
C654     C      0.642470000000     0.979520000000     0.732800000000     0.0389192  
C655     C      0.608690000000     0.524890000000     0.764630000000     0.0388304  
C656     C      0.609350000000     0.979260000000     0.732010000000     0.0626793  
C657     C      0.593860000000     0.953130000000     0.716060000000     0.0523697  
C658     C      0.859520000000     0.978230000000     0.768020000000     0.0412697  
C659     C      0.858970000000     0.525730000000     0.738540000000     0.0291498  
C660     C      0.892590000000     0.979230000000     0.768820000000     0.0412794  
C661     C      0.892010000000     0.525350000000     0.736900000000     0.0545875  
C662     C      0.907620000000     0.551390000000     0.720910000000     0.0520237  
C663     C      0.979040000000     0.860220000000     0.735580000000     0.0445806  
C664     C      0.524860000000     0.859790000000     0.767600000000     0.0298908  
C665     C      0.980170000000     0.893190000000     0.734430000000     0.045885   
C666     C      0.524620000000     0.892940000000     0.768620000000     0.0550643  
C667     C      0.549990000000     0.908670000000     0.785490000000     0.0529452  
C668     C      0.978600000000     0.642720000000     0.766690000000     0.0504043  
C669     C      0.523480000000     0.643270000000     0.733360000000     0.0342435  
C670     C      0.979590000000     0.609710000000     0.767440000000     0.0495693  
C671     C      0.523010000000     0.610150000000     0.731940000000     0.0557851  
C672     C      0.547730000000     0.594510000000     0.714050000000     0.0504511  
H1       H      0.405310000000     0.277750000000     0.042480000000     0.0328608  
H2       H      0.347810000000     0.275950000000     0.044590000000     0.0344133  
H3       H      0.346380000000     0.218190000000     0.461840000000     0.0392733  
H4       H      0.155820000000     0.215960000000     0.031810000000     0.0328409  
H5       H      0.098610000000     0.213490000000     0.031080000000     0.0364649  
H6       H      0.095570000000     0.292300000000     0.468060000000     0.0401775  
H7       H      0.223920000000     0.405430000000     0.040530000000     0.0313845  
H8       H      0.225150000000     0.348120000000     0.042080000000     0.0351504  
H9       H      0.285340000000     0.346830000000     0.961060000000     0.0407436  
H10      H      0.271780000000     0.096690000000     0.958520000000     0.0291163  
H11      H      0.271220000000     0.154130000000     0.957030000000     0.0338035  
H12      H      0.219980000000     0.156180000000     0.043980000000     0.0382605  
H13      H      0.276160000000     0.041660000000     0.405910000000     0.0307526  
H14      H      0.275420000000     0.043600000000     0.348590000000     0.0351716  
H15      H      0.217170000000     0.461160000000     0.346210000000     0.041783   
H16      H      0.220100000000     0.465740000000     0.155720000000     0.0323318  
H17      H      0.218120000000     0.466350000000     0.098350000000     0.0329592  
H18      H      0.291150000000     0.035860000000     0.095930000000     0.0389251  
H19      H      0.468780000000     0.288340000000     0.347180000000     0.0342087  
H20      H      0.469490000000     0.289510000000     0.404570000000     0.0364817  
H21      H      0.031280000000     0.209670000000     0.405750000000     0.0412276  
H22      H      0.531880000000     0.290280000000     0.155260000000     0.0336895  
H23      H      0.530860000000     0.291360000000     0.097800000000     0.0350721  
H24      H      0.472470000000     0.209000000000     0.097010000000     0.0408929  
H25      H      0.096130000000     0.043120000000     0.277660000000     0.0353293  
H26      H      0.153580000000     0.045490000000     0.275620000000     0.03647    
H27      H      0.155310000000     0.460930000000     0.220490000000     0.0399257  
H28      H      0.405150000000     0.460590000000     0.281270000000     0.0320976  
H29      H      0.347490000000     0.459170000000     0.280330000000     0.0354077  
H30      H      0.346290000000     0.044800000000     0.226870000000     0.0490613  
H31      H      0.462190000000     0.405540000000     0.220840000000     0.0331729  
H32      H      0.460610000000     0.348180000000     0.222360000000     0.0352185  
H33      H      0.043130000000     0.347100000000     0.280520000000     0.0414554  
H34      H      0.461970000000     0.097280000000     0.281410000000     0.0358674  
H35      H      0.460630000000     0.154710000000     0.280560000000     0.0384217  
H36      H      0.041410000000     0.156020000000     0.220040000000     0.0417889  
H37      H      0.405310000000     0.277750000000     0.542470000000     0.0330196  
H38      H      0.347810000000     0.275950000000     0.544590000000     0.034708   
H39      H      0.346380000000     0.218190000000     0.961840000000     0.0389371  
H40      H      0.155820000000     0.215960000000     0.531820000000     0.0327732  
H41      H      0.098610000000     0.213490000000     0.531080000000     0.0353521  
H42      H      0.095570000000     0.292300000000     0.968060000000     0.0416365  
H43      H      0.223920000000     0.405430000000     0.540530000000     0.0316058  
H44      H      0.225150000000     0.348120000000     0.542080000000     0.0356025  
H45      H      0.285340000000     0.346830000000     0.461060000000     0.0408959  
H46      H      0.271780000000     0.096690000000     0.458520000000     0.0293221  
H47      H      0.271220000000     0.154130000000     0.457040000000     0.0340671  
H48      H      0.219980000000     0.156180000000     0.543980000000     0.0383127  
H49      H      0.276160000000     0.041660000000     0.905910000000     0.0312171  
H50      H      0.275420000000     0.043600000000     0.848590000000     0.0353314  
H51      H      0.217170000000     0.461160000000     0.846210000000     0.0418926  
H52      H      0.220100000000     0.465740000000     0.655720000000     0.0324553  
H53      H      0.218120000000     0.466350000000     0.598350000000     0.0332651  
H54      H      0.291150000000     0.035860000000     0.595930000000     0.0397348  
H55      H      0.468780000000     0.288340000000     0.847180000000     0.0344181  
H56      H      0.469490000000     0.289510000000     0.904570000000     0.0373985  
H57      H      0.031280000000     0.209670000000     0.905750000000     0.0422186  
H58      H      0.531880000000     0.290280000000     0.655260000000     0.0338767  
H59      H      0.530860000000     0.291360000000     0.597800000000     0.0356254  
H60      H      0.472470000000     0.209000000000     0.597010000000     0.0414224  
H61      H      0.096130000000     0.043120000000     0.777660000000     0.0355284  
H62      H      0.153580000000     0.045490000000     0.775620000000     0.0366314  
H63      H      0.155310000000     0.460930000000     0.720490000000     0.039996   
H64      H      0.405150000000     0.460590000000     0.781270000000     0.0322665  
H65      H      0.347490000000     0.459170000000     0.780330000000     0.0355158  
H66      H      0.346290000000     0.044800000000     0.726870000000     0.0491266  
H67      H      0.462190000000     0.405540000000     0.720840000000     0.0333414  
H68      H      0.460610000000     0.348180000000     0.722360000000     0.0353352  
H69      H      0.043130000000     0.347100000000     0.780510000000     0.0415844  
H70      H      0.461970000000     0.097280000000     0.781410000000     0.036026   
H71      H      0.460630000000     0.154710000000     0.780560000000     0.0385325  
H72      H      0.041410000000     0.156020000000     0.720040000000     0.0418546  
H73      H      0.405310000000     0.777750000000     0.042480000000     0.0331033  
H74      H      0.347810000000     0.775950000000     0.044590000000     0.034602   
H75      H      0.346380000000     0.718190000000     0.461840000000     0.039341   
H76      H      0.155820000000     0.715960000000     0.031810000000     0.0329645  
H77      H      0.098610000000     0.713490000000     0.031080000000     0.0366789  
H78      H      0.095570000000     0.792300000000     0.468060000000     0.040388   
H79      H      0.223920000000     0.905430000000     0.040530000000     0.0318852  
H80      H      0.225150000000     0.848120000000     0.042080000000     0.0353322  
H81      H      0.285340000000     0.846830000000     0.961060000000     0.0409112  
H82      H      0.271780000000     0.596690000000     0.958520000000     0.0294083  
H83      H      0.271220000000     0.654130000000     0.957030000000     0.0339227  
H84      H      0.219980000000     0.656180000000     0.043980000000     0.0383674  
H85      H      0.276160000000     0.541670000000     0.405910000000     0.0308899  
H86      H      0.275420000000     0.543600000000     0.348590000000     0.0354151  
H87      H      0.217170000000     0.961160000000     0.346210000000     0.0415982  
H88      H      0.220100000000     0.965740000000     0.155720000000     0.0323072  
H89      H      0.218120000000     0.966350000000     0.098350000000     0.0328274  
H90      H      0.291150000000     0.535860000000     0.095930000000     0.0390238  
H91      H      0.468780000000     0.788340000000     0.347180000000     0.0343892  
H92      H      0.469490000000     0.789510000000     0.404570000000     0.03674    
H93      H      0.031280000000     0.709680000000     0.405750000000     0.0414275  
H94      H      0.531880000000     0.790280000000     0.155260000000     0.0338462  
H95      H      0.530860000000     0.791360000000     0.097800000000     0.0353138  
H96      H      0.472470000000     0.709000000000     0.097010000000     0.0410448  
H97      H      0.096130000000     0.543120000000     0.277660000000     0.035426   
H98      H      0.153580000000     0.545490000000     0.275620000000     0.0367241  
H99      H      0.155310000000     0.960930000000     0.220490000000     0.0395183  
H100     H      0.405150000000     0.960590000000     0.281270000000     0.0322408  
H101     H      0.347490000000     0.959170000000     0.280330000000     0.0354134  
H102     H      0.346290000000     0.544800000000     0.226870000000     0.0489803  
H103     H      0.462190000000     0.905540000000     0.220840000000     0.0342661  
H104     H      0.460610000000     0.848180000000     0.222360000000     0.0354967  
H105     H      0.043130000000     0.847100000000     0.280520000000     0.0415645  
H106     H      0.461970000000     0.597280000000     0.281410000000     0.0362757  
H107     H      0.460630000000     0.654710000000     0.280560000000     0.0385323  
H108     H      0.041410000000     0.656020000000     0.220040000000     0.0418923  
H109     H      0.405310000000     0.777750000000     0.542470000000     0.0332628  
H110     H      0.347810000000     0.775950000000     0.544590000000     0.0348973  
H111     H      0.346380000000     0.718190000000     0.961840000000     0.0390046  
H112     H      0.155820000000     0.715960000000     0.531820000000     0.0328979  
H113     H      0.098610000000     0.713490000000     0.531080000000     0.0355658  
H114     H      0.095570000000     0.792300000000     0.968060000000     0.0418478  
H115     H      0.223920000000     0.905430000000     0.540530000000     0.0321085  
H116     H      0.225150000000     0.848120000000     0.542080000000     0.0357855  
H117     H      0.285340000000     0.846830000000     0.461060000000     0.041064   
H118     H      0.271780000000     0.596690000000     0.458520000000     0.0296157  
H119     H      0.271220000000     0.654130000000     0.457040000000     0.034187   
H120     H      0.219980000000     0.656180000000     0.543980000000     0.0384201  
H121     H      0.276160000000     0.541670000000     0.905910000000     0.0313561  
H122     H      0.275420000000     0.543600000000     0.848590000000     0.0355757  
H123     H      0.217170000000     0.961160000000     0.846210000000     0.0417051  
H124     H      0.220100000000     0.965740000000     0.655720000000     0.0324303  
H125     H      0.218120000000     0.966350000000     0.598350000000     0.0331319  
H126     H      0.291150000000     0.535860000000     0.595930000000     0.0398379  
H127     H      0.468780000000     0.788340000000     0.847180000000     0.0345986  
H128     H      0.469490000000     0.789510000000     0.904570000000     0.0376574  
H129     H      0.031280000000     0.709680000000     0.905750000000     0.0424207  
H130     H      0.531880000000     0.790280000000     0.655260000000     0.034034   
H131     H      0.530860000000     0.791360000000     0.597800000000     0.0358684  
H132     H      0.472470000000     0.709000000000     0.597010000000     0.0415768  
H133     H      0.096130000000     0.543120000000     0.777660000000     0.0356252  
H134     H      0.153580000000     0.545490000000     0.775620000000     0.036886   
H135     H      0.155310000000     0.960930000000     0.720490000000     0.0395881  
H136     H      0.405150000000     0.960590000000     0.781270000000     0.0324088  
H137     H      0.347490000000     0.959170000000     0.780330000000     0.0355205  
H138     H      0.346290000000     0.544800000000     0.726870000000     0.0490459  
H139     H      0.462190000000     0.905540000000     0.720840000000     0.034437   
H140     H      0.460610000000     0.848180000000     0.722360000000     0.035614   
H141     H      0.043130000000     0.847100000000     0.780510000000     0.0416934  
H142     H      0.461970000000     0.597280000000     0.781410000000     0.0364352  
H143     H      0.460630000000     0.654710000000     0.780560000000     0.0386435  
H144     H      0.041410000000     0.656020000000     0.720040000000     0.0419586  
H145     H      0.905310000000     0.277750000000     0.042480000000     0.0345702  
H146     H      0.847810000000     0.275950000000     0.044590000000     0.0348235  
H147     H      0.846380000000     0.218190000000     0.461840000000     0.0395124  
H148     H      0.655820000000     0.215960000000     0.031810000000     0.0330611  
H149     H      0.598610000000     0.213490000000     0.031080000000     0.0372073  
H150     H      0.595570000000     0.292300000000     0.468060000000     0.0409473  
H151     H      0.723920000000     0.405430000000     0.040530000000     0.031573   
H152     H      0.725150000000     0.348120000000     0.042080000000     0.0352821  
H153     H      0.785340000000     0.346830000000     0.961060000000     0.0409884  
H154     H      0.771780000000     0.096690000000     0.958520000000     0.0293735  
H155     H      0.771220000000     0.154130000000     0.957030000000     0.0339844  
H156     H      0.719980000000     0.156180000000     0.043980000000     0.038379   
H157     H      0.776160000000     0.041660000000     0.405910000000     0.0310415  
H158     H      0.775420000000     0.043600000000     0.348590000000     0.0353944  
H159     H      0.717180000000     0.461160000000     0.346210000000     0.0418978  
H160     H      0.720100000000     0.465740000000     0.155720000000     0.0324537  
H161     H      0.718120000000     0.466350000000     0.098350000000     0.0331595  
H162     H      0.791150000000     0.035860000000     0.095930000000     0.0392934  
H163     H      0.968780000000     0.288340000000     0.347180000000     0.0348222  
H164     H      0.969490000000     0.289510000000     0.404570000000     0.0368947  
H165     H      0.531280000000     0.209670000000     0.405750000000     0.0416243  
H166     H      0.031880000000     0.290280000000     0.155260000000     0.0329315  
H167     H      0.030860000000     0.291360000000     0.097800000000     0.0345344  
H168     H      0.972470000000     0.209000000000     0.097010000000     0.0410561  
H169     H      0.596130000000     0.043120000000     0.277660000000     0.0358998  
H170     H      0.653580000000     0.045490000000     0.275620000000     0.0366456  
H171     H      0.655310000000     0.460930000000     0.220490000000     0.0400462  
H172     H      0.905150000000     0.460590000000     0.281270000000     0.0337254  
H173     H      0.847490000000     0.459170000000     0.280330000000     0.035801   
H174     H      0.846290000000     0.044800000000     0.226870000000     0.0492039  
H175     H      0.962190000000     0.405540000000     0.220840000000     0.0334143  
H176     H      0.960610000000     0.348180000000     0.222360000000     0.0353494  
H177     H      0.543130000000     0.347100000000     0.280520000000     0.0417529  
H178     H      0.961970000000     0.097280000000     0.281410000000     0.0360038  
H179     H      0.960630000000     0.154710000000     0.280560000000     0.0384973  
H180     H      0.541410000000     0.156020000000     0.220040000000     0.0422064  
H181     H      0.905310000000     0.277750000000     0.542470000000     0.0347309  
H182     H      0.847810000000     0.275950000000     0.544590000000     0.0351179  
H183     H      0.846380000000     0.218190000000     0.961840000000     0.0391765  
H184     H      0.655820000000     0.215960000000     0.531820000000     0.0329948  
H185     H      0.598610000000     0.213490000000     0.531080000000     0.0360921  
H186     H      0.595570000000     0.292300000000     0.968060000000     0.0424052  
H187     H      0.723920000000     0.405430000000     0.540530000000     0.0317954  
H188     H      0.725150000000     0.348120000000     0.542080000000     0.0357347  
H189     H      0.785340000000     0.346830000000     0.461060000000     0.0411424  
H190     H      0.771780000000     0.096690000000     0.458520000000     0.0295805  
H191     H      0.771220000000     0.154130000000     0.457040000000     0.0342486  
H192     H      0.719980000000     0.156180000000     0.543980000000     0.0384319  
H193     H      0.776160000000     0.041660000000     0.905910000000     0.0315038  
H194     H      0.775420000000     0.043600000000     0.848590000000     0.035553   
H195     H      0.717180000000     0.461160000000     0.846210000000     0.042007   
H196     H      0.720100000000     0.465740000000     0.655720000000     0.0325774  
H197     H      0.718120000000     0.466350000000     0.598350000000     0.0334659  
H198     H      0.791150000000     0.035860000000     0.595930000000     0.0401015  
H199     H      0.968780000000     0.288340000000     0.847180000000     0.0350291  
H200     H      0.969490000000     0.289510000000     0.904570000000     0.0378068  
H201     H      0.531280000000     0.209670000000     0.905750000000     0.042615   
H202     H      0.031880000000     0.290280000000     0.655260000000     0.0331184  
H203     H      0.030860000000     0.291360000000     0.597800000000     0.0350862  
H204     H      0.972470000000     0.209000000000     0.597010000000     0.0415836  
H205     H      0.596130000000     0.043120000000     0.777660000000     0.0360977  
H206     H      0.653580000000     0.045490000000     0.775620000000     0.0368066  
H207     H      0.655310000000     0.460930000000     0.720490000000     0.0401167  
H208     H      0.905150000000     0.460590000000     0.781270000000     0.0338904  
H209     H      0.847490000000     0.459170000000     0.780330000000     0.0359077  
H210     H      0.846290000000     0.044800000000     0.726870000000     0.0492689  
H211     H      0.962190000000     0.405540000000     0.720840000000     0.0335834  
H212     H      0.960610000000     0.348180000000     0.722360000000     0.035467   
H213     H      0.543130000000     0.347100000000     0.780510000000     0.0418799  
H214     H      0.961970000000     0.097280000000     0.781410000000     0.0361598  
H215     H      0.960630000000     0.154710000000     0.780560000000     0.0386056  
H216     H      0.541410000000     0.156020000000     0.720040000000     0.0422729  
H217     H      0.905310000000     0.777750000000     0.042480000000     0.0348086  
H218     H      0.847810000000     0.775950000000     0.044590000000     0.0350106  
H219     H      0.846380000000     0.718190000000     0.461840000000     0.0395801  
H220     H      0.655820000000     0.715960000000     0.031810000000     0.0331849  
H221     H      0.598610000000     0.713490000000     0.031080000000     0.0374219  
H222     H      0.595570000000     0.792300000000     0.468060000000     0.0411566  
H223     H      0.723920000000     0.905430000000     0.040530000000     0.0320725  
H224     H      0.725150000000     0.848120000000     0.042080000000     0.0354632  
H225     H      0.785340000000     0.846830000000     0.961060000000     0.0411548  
H226     H      0.771780000000     0.596690000000     0.958520000000     0.0296652  
H227     H      0.771220000000     0.654130000000     0.957030000000     0.0341036  
H228     H      0.719980000000     0.656180000000     0.043980000000     0.038486   
H229     H      0.776160000000     0.541670000000     0.405910000000     0.0311787  
H230     H      0.775420000000     0.543600000000     0.348590000000     0.0356374  
H231     H      0.717180000000     0.961160000000     0.346210000000     0.0417127  
H232     H      0.720100000000     0.965740000000     0.155720000000     0.0324292  
H233     H      0.718120000000     0.966350000000     0.098350000000     0.0330278  
H234     H      0.791150000000     0.535860000000     0.095930000000     0.0393922  
H235     H      0.968780000000     0.788340000000     0.347180000000     0.0349986  
H236     H      0.969490000000     0.789510000000     0.404570000000     0.0371489  
H237     H      0.531280000000     0.709680000000     0.405750000000     0.0418249  
H238     H      0.031880000000     0.790280000000     0.155260000000     0.03309    
H239     H      0.030860000000     0.791360000000     0.097800000000     0.0347773  
H240     H      0.972470000000     0.709000000000     0.097010000000     0.041209   
H241     H      0.596130000000     0.543120000000     0.277660000000     0.0359973  
H242     H      0.653580000000     0.545490000000     0.275620000000     0.0369002  
H243     H      0.655310000000     0.960930000000     0.220490000000     0.0396387  
H244     H      0.905150000000     0.960590000000     0.281270000000     0.0338629  
H245     H      0.847490000000     0.959170000000     0.280330000000     0.0358051  
H246     H      0.846290000000     0.544800000000     0.226870000000     0.0491233  
H247     H      0.962190000000     0.905540000000     0.220840000000     0.0345028  
H248     H      0.960610000000     0.848180000000     0.222360000000     0.0356259  
H249     H      0.543130000000     0.847100000000     0.280520000000     0.0418617  
H250     H      0.961970000000     0.597280000000     0.281410000000     0.0364108  
H251     H      0.960630000000     0.654710000000     0.280560000000     0.0386035  
H252     H      0.541410000000     0.656020000000     0.220040000000     0.0423101  
H253     H      0.905310000000     0.777750000000     0.542470000000     0.0349699  
H254     H      0.847810000000     0.775950000000     0.544590000000     0.0353056  
H255     H      0.846380000000     0.718190000000     0.961840000000     0.0392438  
H256     H      0.655820000000     0.715960000000     0.531820000000     0.0331197  
H257     H      0.598610000000     0.713490000000     0.531080000000     0.0363064  
H258     H      0.595570000000     0.792300000000     0.968060000000     0.0426154  
H259     H      0.723920000000     0.905430000000     0.540530000000     0.0322969  
H260     H      0.725150000000     0.848120000000     0.542080000000     0.0359171  
H261     H      0.785340000000     0.846830000000     0.461060000000     0.0413091  
H262     H      0.771780000000     0.596690000000     0.458520000000     0.0298738  
H263     H      0.771220000000     0.654130000000     0.457040000000     0.0343685  
H264     H      0.719980000000     0.656180000000     0.543980000000     0.0385393  
H265     H      0.776160000000     0.541670000000     0.905910000000     0.0316427  
H266     H      0.775420000000     0.543600000000     0.848590000000     0.0357968  
H267     H      0.717180000000     0.961160000000     0.846210000000     0.0418191  
H268     H      0.720100000000     0.965740000000     0.655720000000     0.0325526  
H269     H      0.718120000000     0.966350000000     0.598350000000     0.0333328  
H270     H      0.791150000000     0.535860000000     0.595930000000     0.0402046  
H271     H      0.968780000000     0.788340000000     0.847180000000     0.0352055  
H272     H      0.969490000000     0.789510000000     0.904570000000     0.0380614  
H273     H      0.531280000000     0.709680000000     0.905750000000     0.0428179  
H274     H      0.031880000000     0.790280000000     0.655260000000     0.0332774  
H275     H      0.030860000000     0.791360000000     0.597800000000     0.0353304  
H276     H      0.972470000000     0.709000000000     0.597010000000     0.0417389  
H277     H      0.596130000000     0.543120000000     0.777660000000     0.0361953  
H278     H      0.653580000000     0.545490000000     0.775620000000     0.0370616  
H279     H      0.655310000000     0.960930000000     0.720490000000     0.0397087  
H280     H      0.905150000000     0.960590000000     0.781270000000     0.034027   
H281     H      0.847490000000     0.959170000000     0.780330000000     0.0359109  
H282     H      0.846290000000     0.544800000000     0.726870000000     0.0491886  
H283     H      0.962190000000     0.905540000000     0.720840000000     0.0346743  
H284     H      0.960610000000     0.848180000000     0.722360000000     0.0357442  
H285     H      0.543130000000     0.847100000000     0.780510000000     0.0419886  
H286     H      0.961970000000     0.597280000000     0.781410000000     0.0365676  
H287     H      0.960630000000     0.654710000000     0.780560000000     0.0387122  
H288     H      0.541410000000     0.656020000000     0.720040000000     0.0423773  
N1       N      0.343160000000     0.247030000000     0.503270000000    -0.188541   
N2       N      0.408950000000     0.247300000000     0.002140000000    -0.19311    
N3       N      0.422490000000     0.197320000000     0.430820000000    -0.0995449  
N4       N      0.093140000000     0.252790000000     0.499530000000    -0.187923   
N5       N      0.158910000000     0.254190000000     0.498650000000    -0.191026   
N6       N      0.171660000000     0.321700000000     0.443580000000    -0.0956299  
N7       N      0.255250000000     0.343500000000     0.001560000000    -0.190804   
N8       N      0.255660000000     0.409320000000     0.501240000000    -0.190129   
N9       N      0.308000000000     0.423650000000     0.931960000000    -0.0976648  
N10      N      0.245790000000     0.159080000000     0.000590000000    -0.191588   
N11      N      0.244240000000     0.093360000000     0.000890000000    -0.194834   
N12      N      0.198650000000     0.079500000000     0.074800000000    -0.0990993  
N13      N      0.246370000000     0.502380000000     0.343440000000    -0.188086   
N14      N      0.245330000000     0.501580000000     0.409200000000    -0.190585   
N15      N      0.194480000000     0.431010000000     0.422580000000    -0.0947807  
N16      N      0.254540000000     0.001200000000     0.093340000000    -0.191846   
N17      N      0.254890000000     0.502440000000     0.159070000000    -0.189946   
N18      N      0.315860000000     0.064960000000     0.171750000000    -0.100944   
N19      N      0.000560000000     0.249730000000     0.409140000000    -0.192016   
N20      N      0.501380000000     0.249710000000     0.343330000000    -0.190228   
N21      N      0.054420000000     0.180650000000     0.329530000000    -0.100225   
N22      N      0.501500000000     0.250280000000     0.093450000000    -0.188306   
N23      N      0.500900000000     0.250390000000     0.159210000000    -0.190985   
N24      N      0.450710000000     0.179340000000     0.173460000000    -0.0954209  
N25      N      0.158410000000     0.003330000000     0.247930000000    -0.191386   
N26      N      0.092650000000     0.501800000000     0.248550000000    -0.188472   
N27      N      0.079260000000     0.428640000000     0.201310000000    -0.100212   
N28      N      0.342890000000     0.001810000000     0.253370000000    -0.191099   
N29      N      0.408650000000     0.002130000000     0.252490000000    -0.194007   
N30      N      0.422320000000     0.075790000000     0.206090000000    -0.0948305  
N31      N      0.001710000000     0.343670000000     0.251680000000    -0.193401   
N32      N      0.002290000000     0.409460000000     0.251580000000    -0.194479   
N33      N      0.073810000000     0.423510000000     0.301100000000    -0.0978614  
N34      N      0.000950000000     0.159320000000     0.250210000000    -0.191591   
N35      N      0.501170000000     0.093550000000     0.249530000000    -0.188935   
N36      N      0.070930000000     0.079750000000     0.197470000000    -0.0992938  
N37      N      0.343160000000     0.247030000000     0.003270000000    -0.19183    
N38      N      0.408950000000     0.247300000000     0.502140000000    -0.190492   
N39      N      0.422490000000     0.197320000000     0.930820000000    -0.0985331  
N40      N      0.093140000000     0.252790000000     0.999530000000    -0.17623    
N41      N      0.158910000000     0.254190000000     0.998650000000    -0.187928   
N42      N      0.171660000000     0.321700000000     0.943580000000    -0.0944241  
N43      N      0.255250000000     0.343500000000     0.501560000000    -0.187517   
N44      N      0.255660000000     0.409320000000     0.001240000000    -0.193242   
N45      N      0.308000000000     0.423650000000     0.431960000000    -0.0984605  
N46      N      0.245790000000     0.159080000000     0.500580000000    -0.188406   
N47      N      0.244240000000     0.093360000000     0.500890000000    -0.191647   
N48      N      0.198650000000     0.079500000000     0.574800000000    -0.0987184  
N49      N      0.246370000000     0.502380000000     0.843440000000    -0.188144   
N50      N      0.245330000000     0.501580000000     0.909200000000    -0.190269   
N51      N      0.194480000000     0.431010000000     0.922580000000    -0.0931029  
N52      N      0.254540000000     0.001200000000     0.593340000000    -0.191606   
N53      N      0.254890000000     0.502440000000     0.659070000000    -0.189929   
N54      N      0.315860000000     0.064960000000     0.671750000000    -0.100707   
N55      N      0.000560000000     0.249730000000     0.909140000000    -0.191202   
N56      N      0.501380000000     0.249710000000     0.843330000000    -0.190235   
N57      N      0.054420000000     0.180650000000     0.829530000000    -0.0998679  
N58      N      0.501500000000     0.250280000000     0.593450000000    -0.188496   
N59      N      0.500900000000     0.250390000000     0.659210000000    -0.190875   
N60      N      0.450710000000     0.179340000000     0.673460000000    -0.0952086  
N61      N      0.158410000000     0.003330000000     0.747930000000    -0.191375   
N62      N      0.092650000000     0.501800000000     0.748550000000    -0.188434   
N63      N      0.079260000000     0.428640000000     0.701310000000    -0.0999856  
N64      N      0.342890000000     0.001810000000     0.753370000000    -0.191086   
N65      N      0.408650000000     0.002130000000     0.752490000000    -0.193965   
N66      N      0.422320000000     0.075790000000     0.706090000000    -0.094594   
N67      N      0.001710000000     0.343670000000     0.751680000000    -0.193371   
N68      N      0.002290000000     0.409460000000     0.751580000000    -0.194432   
N69      N      0.073810000000     0.423510000000     0.801100000000    -0.0975399  
N70      N      0.000950000000     0.159320000000     0.750210000000    -0.191574   
N71      N      0.501170000000     0.093550000000     0.749530000000    -0.188893   
N72      N      0.070930000000     0.079750000000     0.697470000000    -0.0990908  
N73      N      0.343160000000     0.747030000000     0.503270000000    -0.188523   
N74      N      0.408950000000     0.747300000000     0.002140000000    -0.193006   
N75      N      0.422490000000     0.697330000000     0.430820000000    -0.099314   
N76      N      0.093140000000     0.752790000000     0.499530000000    -0.187813   
N77      N      0.158910000000     0.754190000000     0.498650000000    -0.191015   
N78      N      0.171660000000     0.821700000000     0.443580000000    -0.0954254  
N79      N      0.255250000000     0.843500000000     0.001560000000    -0.19077    
N80      N      0.255660000000     0.909320000000     0.501240000000    -0.189801   
N81      N      0.308000000000     0.923650000000     0.931960000000    -0.0957741  
N82      N      0.245790000000     0.659080000000     0.000590000000    -0.191576   
N83      N      0.244240000000     0.593360000000     0.000890000000    -0.194597   
N84      N      0.198650000000     0.579500000000     0.074800000000    -0.0976319  
N85      N      0.246370000000     0.002380000000     0.343440000000    -0.191429   
N86      N      0.245330000000     0.001580000000     0.409200000000    -0.193786   
N87      N      0.194480000000     0.931010000000     0.422580000000    -0.0939954  
N88      N      0.254540000000     0.501200000000     0.093340000000    -0.188592   
N89      N      0.254890000000     0.002440000000     0.159070000000    -0.193228   
N90      N      0.315860000000     0.564960000000     0.171750000000    -0.100599   
N91      N      0.000560000000     0.749730000000     0.409140000000    -0.191962   
N92      N      0.501380000000     0.749710000000     0.343330000000    -0.190218   
N93      N      0.054420000000     0.680650000000     0.329530000000    -0.100003   
N94      N      0.501500000000     0.750280000000     0.093450000000    -0.188257   
N95      N      0.500900000000     0.750390000000     0.159210000000    -0.190966   
N96      N      0.450710000000     0.679350000000     0.173460000000    -0.0953009  
N97      N      0.158410000000     0.503330000000     0.247930000000    -0.188017   
N98      N      0.092650000000     0.001800000000     0.248550000000    -0.191222   
N99      N      0.079260000000     0.928640000000     0.201310000000    -0.0992399  
N100     N      0.342890000000     0.501810000000     0.253370000000    -0.187838   
N101     N      0.408650000000     0.502130000000     0.252490000000    -0.191183   
N102     N      0.422320000000     0.575790000000     0.206090000000    -0.0944775  
N103     N      0.001710000000     0.843670000000     0.251680000000    -0.193388   
N104     N      0.002290000000     0.909460000000     0.251580000000    -0.193656   
N105     N      0.073810000000     0.923510000000     0.301100000000    -0.0962214  
N106     N      0.000950000000     0.659320000000     0.250210000000    -0.191589   
N107     N      0.501170000000     0.593550000000     0.249530000000    -0.189136   
N108     N      0.070930000000     0.579750000000     0.197470000000    -0.0981738  
N109     N      0.343160000000     0.747030000000     0.003270000000    -0.19182    
N110     N      0.408950000000     0.747300000000     0.502140000000    -0.190379   
N111     N      0.422490000000     0.697330000000     0.930820000000    -0.0983     
N112     N      0.093140000000     0.752790000000     0.999530000000    -0.176099   
N113     N      0.158910000000     0.754190000000     0.998650000000    -0.187911   
N114     N      0.171660000000     0.821700000000     0.943580000000    -0.0942194  
N115     N      0.255250000000     0.843500000000     0.501560000000    -0.18748    
N116     N      0.255660000000     0.909320000000     0.001240000000    -0.192917   
N117     N      0.308000000000     0.923650000000     0.431960000000    -0.0965688  
N118     N      0.245790000000     0.659080000000     0.500580000000    -0.188381   
N119     N      0.244240000000     0.593360000000     0.500890000000    -0.191396   
N120     N      0.198650000000     0.579500000000     0.574800000000    -0.097243   
N121     N      0.246370000000     0.002380000000     0.843440000000    -0.191491   
N122     N      0.245330000000     0.001580000000     0.909200000000    -0.193473   
N123     N      0.194480000000     0.931010000000     0.922580000000    -0.0923184  
N124     N      0.254540000000     0.501200000000     0.593340000000    -0.188338   
N125     N      0.254890000000     0.002440000000     0.659070000000    -0.193223   
N126     N      0.315860000000     0.564960000000     0.671750000000    -0.100359   
N127     N      0.000560000000     0.749730000000     0.909140000000    -0.191147   
N128     N      0.501380000000     0.749710000000     0.843330000000    -0.190225   
N129     N      0.054420000000     0.680650000000     0.829530000000    -0.0996449  
N130     N      0.501500000000     0.750280000000     0.593450000000    -0.188447   
N131     N      0.500900000000     0.750390000000     0.659210000000    -0.190856   
N132     N      0.450710000000     0.679350000000     0.673460000000    -0.0950873  
N133     N      0.158410000000     0.503330000000     0.747930000000    -0.187997   
N134     N      0.092650000000     0.001800000000     0.748550000000    -0.191191   
N135     N      0.079260000000     0.928640000000     0.701310000000    -0.0990107  
N136     N      0.342890000000     0.501810000000     0.753370000000    -0.187818   
N137     N      0.408650000000     0.502130000000     0.752490000000    -0.191134   
N138     N      0.422320000000     0.575790000000     0.706090000000    -0.0942387  
N139     N      0.001710000000     0.843670000000     0.751680000000    -0.193358   
N140     N      0.002290000000     0.909460000000     0.751580000000    -0.193608   
N141     N      0.073810000000     0.923510000000     0.801100000000    -0.0958989  
N142     N      0.000950000000     0.659320000000     0.750210000000    -0.191571   
N143     N      0.501170000000     0.593550000000     0.749530000000    -0.189095   
N144     N      0.070930000000     0.579750000000     0.697470000000    -0.0979663  
N145     N      0.843160000000     0.247030000000     0.503270000000    -0.18853    
N146     N      0.908950000000     0.247300000000     0.002140000000    -0.191823   
N147     N      0.922490000000     0.197320000000     0.430820000000    -0.0966331  
N148     N      0.593150000000     0.252790000000     0.499530000000    -0.188231   
N149     N      0.658910000000     0.254190000000     0.498650000000    -0.190977   
N150     N      0.671660000000     0.321700000000     0.443580000000    -0.0953691  
N151     N      0.755250000000     0.343500000000     0.001560000000    -0.190763   
N152     N      0.755660000000     0.409320000000     0.501240000000    -0.190056   
N153     N      0.808000000000     0.423650000000     0.931960000000    -0.0969918  
N154     N      0.745790000000     0.159080000000     0.000590000000    -0.191555   
N155     N      0.744240000000     0.093360000000     0.000890000000    -0.194695   
N156     N      0.698650000000     0.079500000000     0.074800000000    -0.0987656  
N157     N      0.746370000000     0.502380000000     0.343440000000    -0.188053   
N158     N      0.745330000000     0.501580000000     0.409200000000    -0.190521   
N159     N      0.694480000000     0.431010000000     0.422580000000    -0.0944307  
N160     N      0.754540000000     0.001200000000     0.093340000000    -0.19183    
N161     N      0.754890000000     0.502440000000     0.159070000000    -0.189918   
N162     N      0.815860000000     0.064960000000     0.171750000000    -0.100564   
N163     N      0.500560000000     0.249730000000     0.409140000000    -0.187627   
N164     N      0.001380000000     0.249710000000     0.343330000000    -0.195338   
N165     N      0.554420000000     0.180650000000     0.329530000000    -0.0989622  
N166     N      0.001500000000     0.250280000000     0.093450000000    -0.192762   
N167     N      0.000900000000     0.250390000000     0.159210000000    -0.195859   
N168     N      0.950710000000     0.179340000000     0.173460000000    -0.0929126  
N169     N      0.658410000000     0.003330000000     0.247930000000    -0.191353   
N170     N      0.592650000000     0.501800000000     0.248550000000    -0.188795   
N171     N      0.579260000000     0.428640000000     0.201310000000    -0.0988032  
N172     N      0.842890000000     0.001810000000     0.253370000000    -0.191079   
N173     N      0.908650000000     0.002130000000     0.252490000000    -0.19272    
N174     N      0.922320000000     0.075790000000     0.206090000000    -0.0922989  
N175     N      0.501710000000     0.343670000000     0.251680000000    -0.188349   
N176     N      0.502290000000     0.409460000000     0.251580000000    -0.190119   
N177     N      0.573810000000     0.423510000000     0.301100000000    -0.0971405  
N178     N      0.500950000000     0.159320000000     0.250210000000    -0.186497   
N179     N      0.001180000000     0.093550000000     0.249530000000    -0.193366   
N180     N      0.570930000000     0.079750000000     0.197470000000    -0.0984609  
N181     N      0.843160000000     0.247030000000     0.003270000000    -0.191808   
N182     N      0.908950000000     0.247300000000     0.502140000000    -0.18921    
N183     N      0.922490000000     0.197320000000     0.930820000000    -0.095636   
N184     N      0.593150000000     0.252790000000     0.999530000000    -0.176532   
N185     N      0.658910000000     0.254190000000     0.998650000000    -0.187882   
N186     N      0.671660000000     0.321700000000     0.943580000000    -0.0941658  
N187     N      0.755250000000     0.343500000000     0.501560000000    -0.187483   
N188     N      0.755660000000     0.409320000000     0.001240000000    -0.193164   
N189     N      0.808000000000     0.423650000000     0.431960000000    -0.0977822  
N190     N      0.745790000000     0.159080000000     0.500580000000    -0.188377   
N191     N      0.744240000000     0.093360000000     0.500890000000    -0.191512   
N192     N      0.698650000000     0.079500000000     0.574800000000    -0.0983835  
N193     N      0.746370000000     0.502380000000     0.843440000000    -0.188112   
N194     N      0.745330000000     0.501580000000     0.909200000000    -0.190205   
N195     N      0.694480000000     0.431010000000     0.922580000000    -0.0927564  
N196     N      0.754540000000     0.001200000000     0.593340000000    -0.191592   
N197     N      0.754890000000     0.502440000000     0.659070000000    -0.189901   
N198     N      0.815860000000     0.064960000000     0.671750000000    -0.100327   
N199     N      0.500560000000     0.249730000000     0.909140000000    -0.186823   
N200     N      0.001380000000     0.249710000000     0.843330000000    -0.195331   
N201     N      0.554420000000     0.180650000000     0.829530000000    -0.098607   
N202     N      0.001500000000     0.250280000000     0.593450000000    -0.192952   
N203     N      0.000900000000     0.250390000000     0.659210000000    -0.195753   
N204     N      0.950710000000     0.179340000000     0.673460000000    -0.0927023  
N205     N      0.658410000000     0.003330000000     0.747930000000    -0.191342   
N206     N      0.592650000000     0.501800000000     0.748550000000    -0.188757   
N207     N      0.579260000000     0.428640000000     0.701310000000    -0.0985757  
N208     N      0.842890000000     0.001810000000     0.753370000000    -0.191066   
N209     N      0.908650000000     0.002130000000     0.752490000000    -0.192679   
N210     N      0.922320000000     0.075790000000     0.706090000000    -0.0920646  
N211     N      0.501710000000     0.343670000000     0.751680000000    -0.188325   
N212     N      0.502290000000     0.409460000000     0.751580000000    -0.190076   
N213     N      0.573810000000     0.423510000000     0.801100000000    -0.0968206  
N214     N      0.500950000000     0.159320000000     0.750210000000    -0.186486   
N215     N      0.001180000000     0.093550000000     0.749530000000    -0.19332    
N216     N      0.570930000000     0.079750000000     0.697470000000    -0.0982566  
N217     N      0.843160000000     0.747030000000     0.503270000000    -0.188513   
N218     N      0.908950000000     0.747300000000     0.002140000000    -0.191721   
N219     N      0.922490000000     0.697330000000     0.430820000000    -0.0964044  
N220     N      0.593150000000     0.752790000000     0.499530000000    -0.188119   
N221     N      0.658910000000     0.754190000000     0.498650000000    -0.190967   
N222     N      0.671660000000     0.821700000000     0.443580000000    -0.0951652  
N223     N      0.755250000000     0.843500000000     0.001560000000    -0.19073    
N224     N      0.755660000000     0.909320000000     0.501240000000    -0.189728   
N225     N      0.808000000000     0.923650000000     0.931960000000    -0.0951089  
N226     N      0.745790000000     0.659080000000     0.000590000000    -0.191542   
N227     N      0.744240000000     0.593360000000     0.000890000000    -0.194459   
N228     N      0.698650000000     0.579500000000     0.074800000000    -0.0972981  
N229     N      0.746370000000     0.002380000000     0.343440000000    -0.191393   
N230     N      0.745330000000     0.001580000000     0.409200000000    -0.193719   
N231     N      0.694480000000     0.931010000000     0.422580000000    -0.0936469  
N232     N      0.754540000000     0.501200000000     0.093340000000    -0.188582   
N233     N      0.754890000000     0.002440000000     0.159070000000    -0.193196   
N234     N      0.815860000000     0.564960000000     0.171750000000    -0.100219   
N235     N      0.500560000000     0.749730000000     0.409140000000    -0.187577   
N236     N      0.001380000000     0.749710000000     0.343330000000    -0.195322   
N237     N      0.554420000000     0.680650000000     0.329530000000    -0.0987389  
N238     N      0.001500000000     0.750280000000     0.093450000000    -0.192709   
N239     N      0.000900000000     0.750390000000     0.159210000000    -0.195837   
N240     N      0.950710000000     0.679350000000     0.173460000000    -0.0927937  
N241     N      0.658410000000     0.503330000000     0.247930000000    -0.187983   
N242     N      0.592650000000     0.001800000000     0.248550000000    -0.191545   
N243     N      0.579260000000     0.928640000000     0.201310000000    -0.0978344  
N244     N      0.842890000000     0.501810000000     0.253370000000    -0.187828   
N245     N      0.908650000000     0.502130000000     0.252490000000    -0.1899     
N246     N      0.922320000000     0.575790000000     0.206090000000    -0.0919443  
N247     N      0.501710000000     0.843670000000     0.251680000000    -0.18835    
N248     N      0.502290000000     0.909460000000     0.251580000000    -0.189305   
N249     N      0.573810000000     0.923510000000     0.301100000000    -0.0955018  
N250     N      0.500950000000     0.659320000000     0.250210000000    -0.186489   
N251     N      0.001180000000     0.593550000000     0.249530000000    -0.193569   
N252     N      0.570930000000     0.579750000000     0.197470000000    -0.0973389  
N253     N      0.843160000000     0.747030000000     0.003270000000    -0.191799   
N254     N      0.908950000000     0.747300000000     0.502140000000    -0.1891     
N255     N      0.922490000000     0.697330000000     0.930820000000    -0.0954051  
N256     N      0.593150000000     0.752790000000     0.999530000000    -0.176399   
N257     N      0.658910000000     0.754190000000     0.998650000000    -0.187866   
N258     N      0.671660000000     0.821700000000     0.943580000000    -0.0939616  
N259     N      0.755250000000     0.843500000000     0.501560000000    -0.187446   
N260     N      0.755660000000     0.909320000000     0.001240000000    -0.192839   
N261     N      0.808000000000     0.923650000000     0.431960000000    -0.0958983  
N262     N      0.745790000000     0.659080000000     0.500580000000    -0.188353   
N263     N      0.744240000000     0.593360000000     0.500890000000    -0.191262   
N264     N      0.698650000000     0.579500000000     0.574800000000    -0.096908   
N265     N      0.746370000000     0.002380000000     0.843440000000    -0.191455   
N266     N      0.745330000000     0.001580000000     0.909200000000    -0.193407   
N267     N      0.694480000000     0.931010000000     0.922580000000    -0.0919735  
N268     N      0.754540000000     0.501200000000     0.593340000000    -0.188329   
N269     N      0.754890000000     0.002440000000     0.659070000000    -0.193191   
N270     N      0.815860000000     0.564960000000     0.671750000000    -0.0999793  
N271     N      0.500560000000     0.749730000000     0.909140000000    -0.186771   
N272     N      0.001380000000     0.749710000000     0.843330000000    -0.195315   
N273     N      0.554420000000     0.680650000000     0.829530000000    -0.0983826  
N274     N      0.001500000000     0.750280000000     0.593450000000    -0.1929     
N275     N      0.000900000000     0.750390000000     0.659210000000    -0.195731   
N276     N      0.950710000000     0.679350000000     0.673460000000    -0.092582   
N277     N      0.658410000000     0.503330000000     0.747930000000    -0.187964   
N278     N      0.592650000000     0.001800000000     0.748550000000    -0.191514   
N279     N      0.579260000000     0.928640000000     0.701310000000    -0.0976046  
N280     N      0.842890000000     0.501810000000     0.753370000000    -0.187808   
N281     N      0.908650000000     0.502130000000     0.752490000000    -0.189853   
N282     N      0.922320000000     0.575790000000     0.706090000000    -0.0917078  
N283     N      0.501710000000     0.843670000000     0.751680000000    -0.188325   
N284     N      0.502290000000     0.909460000000     0.751580000000    -0.189261   
N285     N      0.573810000000     0.923510000000     0.801100000000    -0.0951809  
N286     N      0.500950000000     0.659320000000     0.750210000000    -0.186477   
N287     N      0.001180000000     0.593550000000     0.749530000000    -0.193523   
N288     N      0.570930000000     0.579750000000     0.697470000000    -0.0971301  
O1       O      0.004150000000     0.045850000000     0.223830000000    -0.535085   
O2       O      0.496140000000     0.456380000000     0.225160000000    -0.550499   
O3       O      0.455420000000     0.005190000000     0.225410000000    -0.544963   
O4       O      0.044780000000     0.497120000000     0.223580000000    -0.54116    
O5       O      0.045880000000     0.006630000000     0.275580000000    -0.537447   
O6       O      0.456400000000     0.497120000000     0.277660000000    -0.549206   
O7       O      0.005940000000     0.457200000000     0.277100000000    -0.539691   
O8       O      0.496470000000     0.046570000000     0.276140000000    -0.547356   
O9       O      0.474950000000     0.206750000000     0.255200000000    -0.546796   
O10      O      0.475260000000     0.296380000000     0.247580000000    -0.551959   
O11      O      0.474860000000     0.247600000000     0.206690000000    -0.547343   
O12      O      0.475260000000     0.255360000000     0.296170000000    -0.551313   
O13      O      0.027440000000     0.246910000000     0.295780000000    -0.541396   
O14      O      0.027090000000     0.255770000000     0.206340000000    -0.546345   
O15      O      0.027510000000     0.296080000000     0.255460000000    -0.547703   
O16      O      0.027100000000     0.206720000000     0.246640000000    -0.544644   
O17      O      0.295080000000     0.475710000000     0.255300000000    -0.549028   
O18      O      0.205520000000     0.476730000000     0.246990000000    -0.554221   
O19      O      0.253370000000     0.476160000000     0.206400000000    -0.552885   
O20      O      0.245740000000     0.476150000000     0.295930000000    -0.551151   
O21      O      0.251350000000     0.028730000000     0.296230000000    -0.54999    
O22      O      0.252110000000     0.029090000000     0.206300000000    -0.542064   
O23      O      0.206070000000     0.029410000000     0.251520000000    -0.547158   
O24      O      0.295870000000     0.028400000000     0.250990000000    -0.550493   
O25      O      0.278570000000     0.504270000000     0.044650000000    -0.55757    
O26      O      0.273870000000     0.003800000000     0.454890000000    -0.549205   
O27      O      0.273300000000     0.048060000000     0.998850000000    -0.546378   
O28      O      0.279190000000     0.458370000000     0.499030000000    -0.545901   
O29      O      0.226560000000     0.454690000000     0.003330000000    -0.548956   
O30      O      0.220710000000     0.044410000000     0.503720000000    -0.554008   
O31      O      0.221260000000     0.498830000000     0.457900000000    -0.546302   
O32      O      0.226020000000     0.998670000000     0.047620000000    -0.543184   
O33      O      0.495490000000     0.275880000000     0.456500000000    -0.548833   
O34      O      0.004970000000     0.276450000000     0.045970000000    -0.540412   
O35      O      0.044920000000     0.277590000000     0.496340000000    -0.544785   
O36      O      0.455510000000     0.274810000000     0.006120000000    -0.544894   
O37      O      0.457070000000     0.222610000000     0.497860000000    -0.547225   
O38      O      0.046590000000     0.225440000000     0.004820000000    -0.542715   
O39      O      0.498270000000     0.224010000000     0.046110000000    -0.55069    
O40      O      0.005350000000     0.223960000000     0.456630000000    -0.543774   
O41      O      0.256800000000     0.296110000000     0.475070000000    -0.547908   
O42      O      0.248190000000     0.206570000000     0.474430000000    -0.552538   
O43      O      0.207140000000     0.256060000000     0.473510000000    -0.544524   
O44      O      0.296490000000     0.246620000000     0.475990000000    -0.555419   
O45      O      0.295140000000     0.251270000000     0.028640000000    -0.547103   
O46      O      0.205280000000     0.250880000000     0.026110000000    -0.562037   
O47      O      0.248980000000     0.206190000000     0.027330000000    -0.548451   
O48      O      0.249880000000     0.296100000000     0.027470000000    -0.550464   
O49      O      0.004150000000     0.045850000000     0.723830000000    -0.534989   
O50      O      0.496140000000     0.456380000000     0.725160000000    -0.550372   
O51      O      0.455420000000     0.005190000000     0.725410000000    -0.54482    
O52      O      0.044780000000     0.497120000000     0.723580000000    -0.541072   
O53      O      0.045880000000     0.006630000000     0.775580000000    -0.537288   
O54      O      0.456400000000     0.497120000000     0.777660000000    -0.549063   
O55      O      0.005940000000     0.457200000000     0.777100000000    -0.539562   
O56      O      0.496470000000     0.046570000000     0.776140000000    -0.547202   
O57      O      0.474950000000     0.206750000000     0.755200000000    -0.546755   
O58      O      0.475260000000     0.296380000000     0.747580000000    -0.55191    
O59      O      0.474860000000     0.247600000000     0.706690000000    -0.547404   
O60      O      0.475260000000     0.255360000000     0.796170000000    -0.551253   
O61      O      0.027440000000     0.246910000000     0.795780000000    -0.541352   
O62      O      0.027090000000     0.255770000000     0.706340000000    -0.546396   
O63      O      0.027510000000     0.296080000000     0.755460000000    -0.547667   
O64      O      0.027100000000     0.206720000000     0.746640000000    -0.544648   
O65      O      0.295080000000     0.475710000000     0.755300000000    -0.548947   
O66      O      0.205520000000     0.476730000000     0.746990000000    -0.554152   
O67      O      0.253370000000     0.476160000000     0.706390000000    -0.552691   
O68      O      0.245740000000     0.476150000000     0.795930000000    -0.550975   
O69      O      0.251350000000     0.028730000000     0.796230000000    -0.549827   
O70      O      0.252110000000     0.029090000000     0.706300000000    -0.54209    
O71      O      0.206070000000     0.029410000000     0.751520000000    -0.547111   
O72      O      0.295870000000     0.028400000000     0.750990000000    -0.550477   
O73      O      0.278570000000     0.504270000000     0.544650000000    -0.549999   
O74      O      0.273870000000     0.003800000000     0.954890000000    -0.551121   
O75      O      0.273300000000     0.048060000000     0.498850000000    -0.553473   
O76      O      0.279190000000     0.458370000000     0.999030000000    -0.538762   
O77      O      0.226560000000     0.454690000000     0.503330000000    -0.552127   
O78      O      0.220710000000     0.044410000000     0.003720000000    -0.550716   
O79      O      0.221260000000     0.498830000000     0.957900000000    -0.53792    
O80      O      0.226020000000     0.998670000000     0.547620000000    -0.545806   
O81      O      0.495490000000     0.275880000000     0.956500000000    -0.540443   
O82      O      0.004970000000     0.276450000000     0.545970000000    -0.542867   
O83      O      0.044920000000     0.277590000000     0.996340000000    -0.527024   
O84      O      0.455510000000     0.274810000000     0.506120000000    -0.549038   
O85      O      0.457070000000     0.222610000000     0.997860000000    -0.530949   
O86      O      0.046590000000     0.225440000000     0.504820000000    -0.548648   
O87      O      0.498270000000     0.224010000000     0.546110000000    -0.553245   
O88      O      0.005350000000     0.223960000000     0.956630000000    -0.535356   
O89      O      0.256800000000     0.296110000000     0.975070000000    -0.540411   
O90      O      0.248190000000     0.206570000000     0.974430000000    -0.545057   
O91      O      0.207140000000     0.256060000000     0.973510000000    -0.546433   
O92      O      0.296490000000     0.246620000000     0.975990000000    -0.54802    
O93      O      0.295140000000     0.251270000000     0.528640000000    -0.549743   
O94      O      0.205280000000     0.250880000000     0.526110000000    -0.555352   
O95      O      0.248980000000     0.206190000000     0.527330000000    -0.55124    
O96      O      0.249880000000     0.296100000000     0.527470000000    -0.553071   
O97      O      0.004150000000     0.545850000000     0.223830000000    -0.537707   
O98      O      0.496140000000     0.956380000000     0.225160000000    -0.541849   
O99      O      0.455420000000     0.505190000000     0.225410000000    -0.549347   
O100     O      0.044780000000     0.997120000000     0.223580000000    -0.524436   
O101     O      0.045880000000     0.506630000000     0.275580000000    -0.54162    
O102     O      0.456400000000     0.997120000000     0.277660000000    -0.532351   
O103     O      0.005940000000     0.957200000000     0.277100000000    -0.531091   
O104     O      0.496470000000     0.546560000000     0.276140000000    -0.550067   
O105     O      0.474950000000     0.706750000000     0.255200000000    -0.546791   
O106     O      0.475260000000     0.796380000000     0.247580000000    -0.551868   
O107     O      0.474860000000     0.747600000000     0.206690000000    -0.54731    
O108     O      0.475260000000     0.755360000000     0.296170000000    -0.551269   
O109     O      0.027440000000     0.746910000000     0.295780000000    -0.541382   
O110     O      0.027090000000     0.755770000000     0.206340000000    -0.546318   
O111     O      0.027510000000     0.796080000000     0.255460000000    -0.547668   
O112     O      0.027100000000     0.706720000000     0.246640000000    -0.544627   
O113     O      0.295080000000     0.975710000000     0.255300000000    -0.540648   
O114     O      0.205520000000     0.976730000000     0.246990000000    -0.546229   
O115     O      0.253370000000     0.976160000000     0.206400000000    -0.544607   
O116     O      0.245740000000     0.976150000000     0.295930000000    -0.542967   
O117     O      0.251350000000     0.528730000000     0.296230000000    -0.553236   
O118     O      0.252110000000     0.529090000000     0.206300000000    -0.545335   
O119     O      0.206070000000     0.529410000000     0.251520000000    -0.550299   
O120     O      0.295870000000     0.528400000000     0.250990000000    -0.553951   
O121     O      0.278570000000     0.004270000000     0.044650000000    -0.554103   
O122     O      0.273870000000     0.503800000000     0.454890000000    -0.552528   
O123     O      0.273300000000     0.548060000000     0.998850000000    -0.549097   
O124     O      0.279190000000     0.958370000000     0.499030000000    -0.537194   
O125     O      0.226560000000     0.954690000000     0.003330000000    -0.550941   
O126     O      0.220710000000     0.544410000000     0.503720000000    -0.546211   
O127     O      0.221260000000     0.998830000000     0.457900000000    -0.538918   
O128     O      0.226020000000     0.498670000000     0.047620000000    -0.550488   
O129     O      0.495490000000     0.775880000000     0.456500000000    -0.548675   
O130     O      0.004970000000     0.776450000000     0.045970000000    -0.540246   
O131     O      0.044920000000     0.777590000000     0.496340000000    -0.544568   
O132     O      0.455510000000     0.774810000000     0.006120000000    -0.544619   
O133     O      0.457070000000     0.722600000000     0.497860000000    -0.546906   
O134     O      0.046590000000     0.725430000000     0.004820000000    -0.542364   
O135     O      0.498270000000     0.724010000000     0.046110000000    -0.550551   
O136     O      0.005350000000     0.723960000000     0.456630000000    -0.543645   
O137     O      0.256800000000     0.796110000000     0.475070000000    -0.547872   
O138     O      0.248190000000     0.706570000000     0.474430000000    -0.552488   
O139     O      0.207140000000     0.756060000000     0.473510000000    -0.544501   
O140     O      0.296490000000     0.746620000000     0.475990000000    -0.555382   
O141     O      0.295140000000     0.751270000000     0.028640000000    -0.547046   
O142     O      0.205280000000     0.750880000000     0.026110000000    -0.56202    
O143     O      0.248980000000     0.706190000000     0.027330000000    -0.54843    
O144     O      0.249880000000     0.796100000000     0.027470000000    -0.550372   
O145     O      0.004150000000     0.545850000000     0.723830000000    -0.537617   
O146     O      0.496140000000     0.956380000000     0.725160000000    -0.541702   
O147     O      0.455420000000     0.505190000000     0.725410000000    -0.549211   
O148     O      0.044780000000     0.997120000000     0.723580000000    -0.524313   
O149     O      0.045880000000     0.506630000000     0.775580000000    -0.541469   
O150     O      0.456400000000     0.997120000000     0.777660000000    -0.532182   
O151     O      0.005940000000     0.957200000000     0.777100000000    -0.530949   
O152     O      0.496470000000     0.546560000000     0.776140000000    -0.549918   
O153     O      0.474950000000     0.706750000000     0.755200000000    -0.546749   
O154     O      0.475260000000     0.796380000000     0.747580000000    -0.551819   
O155     O      0.474860000000     0.747600000000     0.706690000000    -0.547371   
O156     O      0.475260000000     0.755360000000     0.796170000000    -0.551208   
O157     O      0.027440000000     0.746910000000     0.795780000000    -0.541338   
O158     O      0.027090000000     0.755770000000     0.706340000000    -0.546368   
O159     O      0.027510000000     0.796080000000     0.755460000000    -0.547632   
O160     O      0.027100000000     0.706720000000     0.746640000000    -0.544631   
O161     O      0.295080000000     0.975710000000     0.755300000000    -0.54055    
O162     O      0.205520000000     0.976730000000     0.746990000000    -0.546145   
O163     O      0.253370000000     0.976160000000     0.706390000000    -0.544388   
O164     O      0.245740000000     0.976150000000     0.795930000000    -0.542784   
O165     O      0.251350000000     0.528730000000     0.796230000000    -0.553077   
O166     O      0.252110000000     0.529090000000     0.706300000000    -0.54537    
O167     O      0.206070000000     0.529410000000     0.751520000000    -0.550259   
O168     O      0.295870000000     0.528400000000     0.750990000000    -0.553942   
O169     O      0.278570000000     0.004270000000     0.544650000000    -0.546563   
O170     O      0.273870000000     0.503800000000     0.954890000000    -0.554448   
O171     O      0.273300000000     0.548060000000     0.498850000000    -0.556226   
O172     O      0.279190000000     0.958370000000     0.999030000000    -0.530058   
O173     O      0.226560000000     0.954690000000     0.503330000000    -0.554116   
O174     O      0.220710000000     0.544410000000     0.003720000000    -0.542951   
O175     O      0.221260000000     0.998830000000     0.957900000000    -0.530539   
O176     O      0.226020000000     0.498670000000     0.547620000000    -0.553144   
O177     O      0.495490000000     0.775880000000     0.956500000000    -0.540271   
O178     O      0.004970000000     0.776450000000     0.545970000000    -0.542705   
O179     O      0.044920000000     0.777590000000     0.996340000000    -0.52678    
O180     O      0.455510000000     0.774810000000     0.506120000000    -0.548768   
O181     O      0.457070000000     0.722600000000     0.997860000000    -0.530603   
O182     O      0.046590000000     0.725430000000     0.504820000000    -0.548301   
O183     O      0.498270000000     0.724010000000     0.546110000000    -0.553112   
O184     O      0.005350000000     0.723960000000     0.956630000000    -0.535207   
O185     O      0.256800000000     0.796110000000     0.975070000000    -0.540365   
O186     O      0.248190000000     0.706570000000     0.974430000000    -0.544985   
O187     O      0.207140000000     0.756060000000     0.973510000000    -0.546412   
O188     O      0.296490000000     0.746620000000     0.975990000000    -0.547968   
O189     O      0.295140000000     0.751270000000     0.528640000000    -0.549692   
O190     O      0.205280000000     0.750880000000     0.526110000000    -0.555323   
O191     O      0.248980000000     0.706190000000     0.527330000000    -0.551226   
O192     O      0.249880000000     0.796100000000     0.527470000000    -0.552985   
O193     O      0.504150000000     0.045850000000     0.223830000000    -0.541574   
O194     O      0.996140000000     0.456380000000     0.225160000000    -0.524537   
O195     O      0.955420000000     0.005190000000     0.225410000000    -0.531699   
O196     O      0.544770000000     0.497120000000     0.223580000000    -0.545446   
O197     O      0.545880000000     0.006630000000     0.275580000000    -0.541418   
O198     O      0.956400000000     0.497120000000     0.277660000000    -0.53585    
O199     O      0.505940000000     0.457200000000     0.277100000000    -0.546339   
O200     O      0.996470000000     0.046570000000     0.276140000000    -0.521578   
O201     O      0.974950000000     0.206750000000     0.255200000000    -0.534275   
O202     O      0.975260000000     0.296380000000     0.247580000000    -0.539267   
O203     O      0.974860000000     0.247600000000     0.206690000000    -0.534855   
O204     O      0.975260000000     0.255360000000     0.296170000000    -0.53861    
O205     O      0.527440000000     0.246910000000     0.295780000000    -0.546606   
O206     O      0.527090000000     0.255770000000     0.206340000000    -0.55136    
O207     O      0.527510000000     0.296080000000     0.255460000000    -0.552756   
O208     O      0.527100000000     0.206720000000     0.246640000000    -0.549745   
O209     O      0.795080000000     0.475710000000     0.255300000000    -0.548894   
O210     O      0.705520000000     0.476730000000     0.246990000000    -0.554208   
O211     O      0.753370000000     0.476160000000     0.206400000000    -0.552799   
O212     O      0.745740000000     0.476150000000     0.295930000000    -0.551098   
O213     O      0.751350000000     0.028730000000     0.296230000000    -0.549931   
O214     O      0.752110000000     0.029090000000     0.206300000000    -0.542061   
O215     O      0.706070000000     0.029410000000     0.251520000000    -0.547131   
O216     O      0.795870000000     0.028400000000     0.250990000000    -0.550425   
O217     O      0.778570000000     0.504270000000     0.044650000000    -0.557325   
O218     O      0.773870000000     0.003800000000     0.454890000000    -0.549004   
O219     O      0.773300000000     0.048060000000     0.998850000000    -0.5461     
O220     O      0.779190000000     0.458370000000     0.499030000000    -0.545605   
O221     O      0.726560000000     0.454690000000     0.003330000000    -0.548819   
O222     O      0.720700000000     0.044410000000     0.503720000000    -0.553595   
O223     O      0.721260000000     0.498830000000     0.457900000000    -0.546119   
O224     O      0.726030000000     0.998670000000     0.047620000000    -0.543241   
O225     O      0.995490000000     0.275880000000     0.456500000000    -0.523237   
O226     O      0.504970000000     0.276450000000     0.045970000000    -0.547027   
O227     O      0.544920000000     0.277590000000     0.496340000000    -0.54856    
O228     O      0.955510000000     0.274810000000     0.006120000000    -0.531547   
O229     O      0.957070000000     0.222610000000     0.497860000000    -0.533934   
O230     O      0.546590000000     0.225440000000     0.004820000000    -0.546603   
O231     O      0.998270000000     0.224010000000     0.046110000000    -0.524966   
O232     O      0.505350000000     0.223960000000     0.456630000000    -0.550411   
O233     O      0.756800000000     0.296110000000     0.475070000000    -0.547857   
O234     O      0.748190000000     0.206570000000     0.474430000000    -0.552491   
O235     O      0.707140000000     0.256060000000     0.473510000000    -0.544513   
O236     O      0.796490000000     0.246620000000     0.475990000000    -0.555308   
O237     O      0.795140000000     0.251270000000     0.028640000000    -0.546979   
O238     O      0.705280000000     0.250880000000     0.026110000000    -0.561987   
O239     O      0.748980000000     0.206190000000     0.027330000000    -0.548393   
O240     O      0.749880000000     0.296100000000     0.027470000000    -0.550391   
O241     O      0.504150000000     0.045850000000     0.723830000000    -0.541468   
O242     O      0.996140000000     0.456380000000     0.725160000000    -0.524436   
O243     O      0.955420000000     0.005190000000     0.725410000000    -0.531565   
O244     O      0.544770000000     0.497120000000     0.723580000000    -0.545355   
O245     O      0.545880000000     0.006630000000     0.775580000000    -0.541255   
O246     O      0.956400000000     0.497120000000     0.777660000000    -0.535729   
O247     O      0.505940000000     0.457200000000     0.777100000000    -0.546202   
O248     O      0.996470000000     0.046570000000     0.776140000000    -0.521465   
O249     O      0.974950000000     0.206750000000     0.755200000000    -0.53425    
O250     O      0.975260000000     0.296380000000     0.747580000000    -0.539233   
O251     O      0.974860000000     0.247600000000     0.706690000000    -0.534916   
O252     O      0.975260000000     0.255360000000     0.796170000000    -0.538575   
O253     O      0.527440000000     0.246910000000     0.795780000000    -0.546555   
O254     O      0.527090000000     0.255770000000     0.706340000000    -0.551411   
O255     O      0.527510000000     0.296080000000     0.755460000000    -0.552715   
O256     O      0.527100000000     0.206720000000     0.746640000000    -0.549744   
O257     O      0.795080000000     0.475710000000     0.755300000000    -0.548813   
O258     O      0.705520000000     0.476730000000     0.746990000000    -0.554139   
O259     O      0.753370000000     0.476160000000     0.706390000000    -0.552605   
O260     O      0.745740000000     0.476150000000     0.795930000000    -0.550922   
O261     O      0.751350000000     0.028730000000     0.796230000000    -0.549769   
O262     O      0.752110000000     0.029090000000     0.706300000000    -0.542087   
O263     O      0.706070000000     0.029410000000     0.751520000000    -0.547085   
O264     O      0.795870000000     0.028400000000     0.750990000000    -0.55041    
O265     O      0.778570000000     0.504270000000     0.544650000000    -0.549773   
O266     O      0.773870000000     0.003800000000     0.954890000000    -0.550915   
O267     O      0.773300000000     0.048060000000     0.498850000000    -0.553177   
O268     O      0.779190000000     0.458370000000     0.999030000000    -0.538484   
O269     O      0.726560000000     0.454690000000     0.503330000000    -0.55198    
O270     O      0.720700000000     0.044410000000     0.003720000000    -0.550315   
O271     O      0.721260000000     0.498830000000     0.957900000000    -0.53775    
O272     O      0.726030000000     0.998670000000     0.547620000000    -0.545859   
O273     O      0.995490000000     0.275880000000     0.956500000000    -0.514971   
O274     O      0.504970000000     0.276450000000     0.545970000000    -0.549504   
O275     O      0.544920000000     0.277590000000     0.996340000000    -0.53078    
O276     O      0.955510000000     0.274810000000     0.506120000000    -0.535648   
O277     O      0.957070000000     0.222610000000     0.997860000000    -0.517774   
O278     O      0.546590000000     0.225440000000     0.504820000000    -0.552552   
O279     O      0.998270000000     0.224010000000     0.546110000000    -0.527478   
O280     O      0.505350000000     0.223960000000     0.956630000000    -0.541958   
O281     O      0.756800000000     0.296110000000     0.975070000000    -0.540374   
O282     O      0.748190000000     0.206570000000     0.974430000000    -0.545022   
O283     O      0.707140000000     0.256060000000     0.973510000000    -0.546417   
O284     O      0.796490000000     0.246620000000     0.975990000000    -0.547929   
O285     O      0.795140000000     0.251270000000     0.528640000000    -0.549614   
O286     O      0.705280000000     0.250880000000     0.526110000000    -0.555311   
O287     O      0.748980000000     0.206190000000     0.527330000000    -0.551178   
O288     O      0.749880000000     0.296100000000     0.527470000000    -0.552994   
O289     O      0.504150000000     0.545850000000     0.223830000000    -0.544218   
O290     O      0.996140000000     0.956380000000     0.225160000000    -0.516013   
O291     O      0.955420000000     0.505190000000     0.225410000000    -0.536035   
O292     O      0.544770000000     0.997120000000     0.223580000000    -0.528693   
O293     O      0.545880000000     0.506630000000     0.275580000000    -0.545612   
O294     O      0.956400000000     0.997120000000     0.277660000000    -0.519111   
O295     O      0.505940000000     0.957200000000     0.277100000000    -0.5377     
O296     O      0.996470000000     0.546560000000     0.276140000000    -0.52424    
O297     O      0.974950000000     0.706750000000     0.255200000000    -0.534274   
O298     O      0.975260000000     0.796380000000     0.247580000000    -0.5392     
O299     O      0.974860000000     0.747600000000     0.206690000000    -0.534835   
O300     O      0.975260000000     0.755360000000     0.296170000000    -0.53858    
O301     O      0.527440000000     0.746910000000     0.295780000000    -0.546586   
O302     O      0.527090000000     0.755770000000     0.206340000000    -0.551328   
O303     O      0.527510000000     0.796080000000     0.255460000000    -0.552714   
O304     O      0.527100000000     0.706720000000     0.246640000000    -0.549725   
O305     O      0.795080000000     0.975710000000     0.255300000000    -0.540534   
O306     O      0.705520000000     0.976730000000     0.246990000000    -0.546223   
O307     O      0.753370000000     0.976160000000     0.206400000000    -0.544536   
O308     O      0.745740000000     0.976150000000     0.295930000000    -0.542927   
O309     O      0.751350000000     0.528730000000     0.296230000000    -0.553174   
O310     O      0.752110000000     0.529090000000     0.206300000000    -0.545328   
O311     O      0.706070000000     0.529410000000     0.251520000000    -0.550269   
O312     O      0.795870000000     0.528400000000     0.250990000000    -0.553878   
O313     O      0.778570000000     0.004270000000     0.044650000000    -0.553863   
O314     O      0.773870000000     0.503800000000     0.454890000000    -0.552322   
O315     O      0.773300000000     0.548060000000     0.998850000000    -0.548815   
O316     O      0.779190000000     0.958370000000     0.499030000000    -0.536916   
O317     O      0.726560000000     0.954690000000     0.003330000000    -0.550799   
O318     O      0.720700000000     0.544410000000     0.503720000000    -0.545809   
O319     O      0.721260000000     0.998830000000     0.457900000000    -0.538746   
O320     O      0.726030000000     0.498670000000     0.047620000000    -0.550538   
O321     O      0.995490000000     0.775880000000     0.456500000000    -0.523116   
O322     O      0.504970000000     0.776450000000     0.045970000000    -0.546854   
O323     O      0.544920000000     0.777590000000     0.496340000000    -0.548338   
O324     O      0.955510000000     0.774810000000     0.006120000000    -0.531294   
O325     O      0.957070000000     0.722600000000     0.497860000000    -0.533627   
O326     O      0.546590000000     0.725430000000     0.004820000000    -0.546248   
O327     O      0.998270000000     0.724010000000     0.046110000000    -0.524849   
O328     O      0.505350000000     0.723960000000     0.456630000000    -0.550273   
O329     O      0.756800000000     0.796110000000     0.475070000000    -0.547821   
O330     O      0.748190000000     0.706570000000     0.474430000000    -0.55244    
O331     O      0.707140000000     0.756060000000     0.473510000000    -0.544489   
O332     O      0.796490000000     0.746620000000     0.475990000000    -0.555271   
O333     O      0.795140000000     0.751270000000     0.028640000000    -0.546923   
O334     O      0.705280000000     0.750880000000     0.026110000000    -0.56197    
O335     O      0.748980000000     0.706190000000     0.027330000000    -0.548372   
O336     O      0.749880000000     0.796100000000     0.027470000000    -0.550299   
O337     O      0.504150000000     0.545850000000     0.723830000000    -0.544118   
O338     O      0.996140000000     0.956380000000     0.725160000000    -0.515891   
O339     O      0.955420000000     0.505190000000     0.725410000000    -0.535909   
O340     O      0.544770000000     0.997120000000     0.723580000000    -0.528566   
O341     O      0.545880000000     0.506630000000     0.775580000000    -0.545456   
O342     O      0.956400000000     0.997120000000     0.777660000000    -0.518965   
O343     O      0.505940000000     0.957200000000     0.777100000000    -0.53755    
O344     O      0.996470000000     0.546560000000     0.776140000000    -0.524132   
O345     O      0.974950000000     0.706750000000     0.755200000000    -0.534249   
O346     O      0.975260000000     0.796380000000     0.747580000000    -0.539165   
O347     O      0.974860000000     0.747600000000     0.706690000000    -0.534897   
O348     O      0.975260000000     0.755360000000     0.796170000000    -0.538545   
O349     O      0.527440000000     0.746910000000     0.795780000000    -0.546535   
O350     O      0.527090000000     0.755770000000     0.706340000000    -0.551379   
O351     O      0.527510000000     0.796080000000     0.755460000000    -0.552673   
O352     O      0.527100000000     0.706720000000     0.746640000000    -0.549723   
O353     O      0.795080000000     0.975710000000     0.755300000000    -0.540437   
O354     O      0.705520000000     0.976730000000     0.746990000000    -0.546139   
O355     O      0.753370000000     0.976160000000     0.706390000000    -0.544317   
O356     O      0.745740000000     0.976150000000     0.795930000000    -0.542744   
O357     O      0.751350000000     0.528730000000     0.796230000000    -0.553014   
O358     O      0.752110000000     0.529090000000     0.706300000000    -0.545362   
O359     O      0.706070000000     0.529410000000     0.751520000000    -0.550229   
O360     O      0.795870000000     0.528400000000     0.750990000000    -0.553869   
O361     O      0.778570000000     0.004270000000     0.544650000000    -0.546342   
O362     O      0.773870000000     0.503800000000     0.954890000000    -0.554236   
O363     O      0.773300000000     0.548060000000     0.498850000000    -0.555927   
O364     O      0.779190000000     0.958370000000     0.999030000000    -0.529798   
O365     O      0.726560000000     0.954690000000     0.503330000000    -0.553964   
O366     O      0.720700000000     0.544410000000     0.003720000000    -0.542561   
O367     O      0.721260000000     0.998830000000     0.957900000000    -0.53038    
O368     O      0.726030000000     0.498670000000     0.547620000000    -0.55319    
O369     O      0.995490000000     0.775880000000     0.956500000000    -0.514836   
O370     O      0.504970000000     0.776450000000     0.545970000000    -0.549335   
O371     O      0.544920000000     0.777590000000     0.996340000000    -0.53053    
O372     O      0.955510000000     0.774810000000     0.506120000000    -0.535401   
O373     O      0.957070000000     0.722600000000     0.997860000000    -0.517439   
O374     O      0.546590000000     0.725430000000     0.504820000000    -0.552202   
O375     O      0.998270000000     0.724010000000     0.546110000000    -0.527367   
O376     O      0.505350000000     0.723960000000     0.956630000000    -0.5418     
O377     O      0.756800000000     0.796110000000     0.975070000000    -0.540328   
O378     O      0.748190000000     0.706570000000     0.974430000000    -0.544951   
O379     O      0.707140000000     0.756060000000     0.973510000000    -0.546396   
O380     O      0.796490000000     0.746620000000     0.975990000000    -0.547878   
O381     O      0.795140000000     0.751270000000     0.528640000000    -0.549564   
O382     O      0.705280000000     0.750880000000     0.526110000000    -0.555282   
O383     O      0.748980000000     0.706190000000     0.527330000000    -0.551164   
O384     O      0.749880000000     0.796100000000     0.527470000000    -0.552907   
V1       V      0.500040000000     0.001100000000     0.222200000000     1.39176    
V2       V      0.501190000000     0.501900000000     0.278940000000     1.393      
V3       V      0.472800000000     0.251580000000     0.251420000000     1.39722    
V4       V      0.029560000000     0.251400000000     0.251060000000     1.38281    
V5       V      0.250030000000     0.474040000000     0.251180000000     1.39778    
V6       V      0.251240000000     0.031060000000     0.251280000000     1.39277    
V7       V      0.278370000000     0.003620000000     0.999400000000     1.40134    
V8       V      0.221500000000     0.999160000000     0.503120000000     1.43233    
V9       V      0.000150000000     0.278470000000     0.501240000000     1.35423    
V10      V      0.001890000000     0.221740000000     0.001380000000     1.35346    
V11      V      0.252100000000     0.251370000000     0.472600000000     1.40229    
V12      V      0.249910000000     0.251130000000     0.029550000000     1.38671    
V13      V      0.500040000000     0.001100000000     0.722200000000     1.392      
V14      V      0.501190000000     0.501900000000     0.778940000000     1.39349    
V15      V      0.472800000000     0.251580000000     0.751420000000     1.39723    
V16      V      0.029560000000     0.251400000000     0.751060000000     1.38287    
V17      V      0.250030000000     0.474040000000     0.751180000000     1.39749    
V18      V      0.251240000000     0.031060000000     0.751280000000     1.39283    
V19      V      0.278370000000     0.003620000000     0.499400000000     1.37912    
V20      V      0.221500000000     0.999160000000     0.003120000000     1.40691    
V21      V      0.000150000000     0.278470000000     0.001240000000     1.33384    
V22      V      0.001890000000     0.221740000000     0.501380000000     1.37402    
V23      V      0.252100000000     0.251370000000     0.972600000000     1.40996    
V24      V      0.249910000000     0.251130000000     0.529550000000     1.39762    
V25      V      0.500040000000     0.501100000000     0.222200000000     1.41264    
V26      V      0.501190000000     0.001900000000     0.278940000000     1.37184    
V27      V      0.472800000000     0.751580000000     0.251420000000     1.39727    
V28      V      0.029560000000     0.751400000000     0.251060000000     1.38281    
V29      V      0.250030000000     0.974040000000     0.251180000000     1.40409    
V30      V      0.251240000000     0.531060000000     0.251280000000     1.40582    
V31      V      0.278370000000     0.503620000000     0.999400000000     1.42757    
V32      V      0.221500000000     0.499160000000     0.503120000000     1.40929    
V33      V      0.000150000000     0.778470000000     0.501240000000     1.35475    
V34      V      0.001890000000     0.721740000000     0.001380000000     1.3536     
V35      V      0.252100000000     0.751370000000     0.472600000000     1.40229    
V36      V      0.249910000000     0.751130000000     0.029550000000     1.38673    
V37      V      0.500040000000     0.501100000000     0.722200000000     1.41293    
V38      V      0.501190000000     0.001900000000     0.778940000000     1.3723     
V39      V      0.472800000000     0.751580000000     0.751420000000     1.39729    
V40      V      0.029560000000     0.751400000000     0.751060000000     1.38287    
V41      V      0.250030000000     0.974040000000     0.751180000000     1.4038     
V42      V      0.251240000000     0.531060000000     0.751280000000     1.40591    
V43      V      0.278370000000     0.503620000000     0.499400000000     1.40531    
V44      V      0.221500000000     0.499160000000     0.003120000000     1.38391    
V45      V      0.000150000000     0.778470000000     0.001240000000     1.33432    
V46      V      0.001890000000     0.721740000000     0.501380000000     1.37421    
V47      V      0.252100000000     0.751370000000     0.972600000000     1.40998    
V48      V      0.249910000000     0.751130000000     0.529550000000     1.39767    
V49      V      0.000040000000     0.001100000000     0.222200000000     1.35925    
V50      V      0.001190000000     0.501900000000     0.278940000000     1.36122    
V51      V      0.972800000000     0.251580000000     0.251420000000     1.407      
V52      V      0.529560000000     0.251400000000     0.251060000000     1.40299    
V53      V      0.750030000000     0.474040000000     0.251180000000     1.39785    
V54      V      0.751240000000     0.031060000000     0.251280000000     1.39277    
V55      V      0.778370000000     0.003620000000     0.999400000000     1.40225    
V56      V      0.721500000000     0.999160000000     0.503120000000     1.43255    
V57      V      0.500150000000     0.278470000000     0.501240000000     1.38617    
V58      V      0.501890000000     0.221740000000     0.001380000000     1.38563    
V59      V      0.752100000000     0.251370000000     0.472600000000     1.40231    
V60      V      0.749910000000     0.251130000000     0.029550000000     1.3868     
V61      V      0.000040000000     0.001100000000     0.722200000000     1.3595     
V62      V      0.001190000000     0.501900000000     0.778940000000     1.36176    
V63      V      0.972800000000     0.251580000000     0.751420000000     1.40699    
V64      V      0.529560000000     0.251400000000     0.751060000000     1.40303    
V65      V      0.750030000000     0.474040000000     0.751180000000     1.39756    
V66      V      0.751240000000     0.031060000000     0.751280000000     1.39283    
V67      V      0.778370000000     0.003620000000     0.499400000000     1.3801     
V68      V      0.721500000000     0.999160000000     0.003120000000     1.40716    
V69      V      0.500150000000     0.278470000000     0.001240000000     1.36563    
V70      V      0.501890000000     0.221740000000     0.501380000000     1.40632    
V71      V      0.752100000000     0.251370000000     0.972600000000     1.40997    
V72      V      0.749910000000     0.251130000000     0.529550000000     1.3977     
V73      V      0.000040000000     0.501100000000     0.222200000000     1.37997    
V74      V      0.001190000000     0.001900000000     0.278940000000     1.34021    
V75      V      0.972800000000     0.751580000000     0.251420000000     1.40704    
V76      V      0.529560000000     0.751400000000     0.251060000000     1.40298    
V77      V      0.750030000000     0.974040000000     0.251180000000     1.40414    
V78      V      0.751240000000     0.531060000000     0.251280000000     1.4058     
V79      V      0.778370000000     0.503620000000     0.999400000000     1.42845    
V80      V      0.721500000000     0.499160000000     0.503120000000     1.40956    
V81      V      0.500150000000     0.778470000000     0.501240000000     1.38664    
V82      V      0.501890000000     0.721740000000     0.001380000000     1.38575    
V83      V      0.752100000000     0.751370000000     0.472600000000     1.40231    
V84      V      0.749910000000     0.751130000000     0.029550000000     1.38682    
V85      V      0.000040000000     0.501100000000     0.722200000000     1.38028    
V86      V      0.001190000000     0.001900000000     0.778940000000     1.34072    
V87      V      0.972800000000     0.751580000000     0.751420000000     1.40703    
V88      V      0.529560000000     0.751400000000     0.751060000000     1.40301    
V89      V      0.750030000000     0.974040000000     0.751180000000     1.40386    
V90      V      0.751240000000     0.531060000000     0.751280000000     1.40589    
V91      V      0.778370000000     0.503620000000     0.499400000000     1.40625    
V92      V      0.721500000000     0.499160000000     0.003120000000     1.38421    
V93      V      0.500150000000     0.778470000000     0.001240000000     1.36607    
V94      V      0.501890000000     0.721740000000     0.501380000000     1.4065     
V95      V      0.752100000000     0.751370000000     0.972600000000     1.40998    
V96      V      0.749910000000     0.751130000000     0.529550000000     1.39774    


