data_structure

_audit_creation_method RASPA-1.0
_audit_creation_date 2023-5-19
_audit_author_name 'Poobodin Mano'

_cell_length_a    42.2227
_cell_length_b    42.2023
_cell_length_c    42.1907
_cell_angle_alpha 90
_cell_angle_beta  90
_cell_angle_gamma 90
_cell_volume      75179.4

_symmetry_cell_setting          triclinic
_symmetry_space_group_name_Hall 'P 1'
_symmetry_space_group_name_H-M  'P 1'
_symmetry_Int_Tables_number     1

_symmetry_equiv_pos_as_xyz 'x,y,z'

loop_
_atom_site_label
_atom_site_type_symbol
_atom_site_fract_x
_atom_site_fract_y
_atom_site_fract_z
_atom_site_charge
C1       C      0.506310000000     0.066220000000     0.258490000000     0.473544   
C2       C      0.507040000000     0.446550000000     0.256080000000     0.483301   
C3       C      0.446890000000     0.506940000000     0.256580000000     0.475323   
C4       C      0.066540000000     0.505750000000     0.257580000000     0.508604   
C5       C      0.007810000000     0.316190000000     0.255180000000     0.505355   
C6       C      0.004480000000     0.196460000000     0.260220000000     0.503055   
C7       C      0.507240000000     0.259270000000     0.317370000000     0.482269   
C8       C      0.505080000000     0.253460000000     0.197540000000     0.482003   
C9       C      0.316660000000     0.508290000000     0.255660000000     0.521276   
C10      C      0.196880000000     0.504980000000     0.257090000000     0.476565   
C11      C      0.257580000000     0.007840000000     0.316540000000     0.505113   
C12      C      0.256230000000     0.005440000000     0.196730000000     0.509267   
C13      C      0.255740000000     0.004890000000     0.066530000000     0.481729   
C14      C      0.257280000000     0.009100000000     0.446730000000     0.477218   
C15      C      0.258010000000     0.066900000000     0.509050000000     0.511923   
C16      C      0.254760000000     0.447150000000     0.503900000000     0.478224   
C17      C      0.066650000000     0.258610000000     0.507560000000     0.477047   
C18      C      0.446790000000     0.255490000000     0.507040000000     0.489896   
C19      C      0.507390000000     0.260270000000     0.447480000000     0.517587   
C20      C      0.505720000000     0.253850000000     0.067260000000     0.512602   
C21      C      0.256680000000     0.197210000000     0.509290000000     0.48645    
C22      C      0.256220000000     0.316960000000     0.503700000000     0.512746   
C23      C      0.196730000000     0.257580000000     0.006550000000     0.503659   
C24      C      0.316540000000     0.256360000000     0.006660000000     0.51049    
C25      C      0.398190000000     0.276430000000     0.025270000000     0.0328308  
C26      C      0.398190000000     0.233240000000     0.489650000000    -0.0627947  
C27      C      0.365190000000     0.275750000000     0.026150000000     0.0618899  
C28      C      0.365100000000     0.234570000000     0.488150000000     0.38473    
C29      C      0.115520000000     0.279430000000     0.025850000000     0.0227538  
C30      C      0.114830000000     0.238830000000     0.487270000000    -0.0728107  
C31      C      0.148580000000     0.277680000000     0.026900000000     0.0517602  
C32      C      0.147840000000     0.239400000000     0.485960000000     0.378091   
C33      C      0.232680000000     0.398260000000     0.020280000000     0.0245958  
C34      C      0.275190000000     0.398880000000     0.483870000000    -0.0688889  
C35      C      0.234270000000     0.365240000000     0.021390000000     0.0532929  
C36      C      0.274670000000     0.365780000000     0.482580000000     0.380712   
C37      C      0.238700000000     0.148320000000     0.489170000000     0.0289699  
C38      C      0.275640000000     0.148860000000     0.031220000000    -0.0662639  
C39      C      0.238440000000     0.115370000000     0.489780000000     0.0562523  
C40      C      0.277690000000     0.115710000000     0.029760000000     0.377936   
C41      C      0.235180000000     0.025590000000     0.397870000000     0.0255347  
C42      C      0.280570000000     0.492830000000     0.398440000000    -0.0696012  
C43      C      0.236320000000     0.026490000000     0.364800000000     0.0526158  
C44      C      0.279730000000     0.491070000000     0.365390000000     0.379844   
C45      C      0.235890000000     0.024480000000     0.115150000000     0.0281774  
C46      C      0.275180000000     0.484580000000     0.115070000000    -0.0662132  
C47      C      0.237360000000     0.025780000000     0.148180000000     0.0543937  
C48      C      0.274250000000     0.483600000000     0.148160000000     0.38223    
C49      C      0.030490000000     0.244350000000     0.366060000000     0.0279081  
C50      C      0.985780000000     0.278050000000     0.365780000000    -0.0624457  
C51      C      0.029600000000     0.243560000000     0.399090000000     0.0578109  
C52      C      0.986950000000     0.279900000000     0.398880000000     0.386455   
C53      C      0.025150000000     0.233570000000     0.148870000000     0.0249855  
C54      C      0.483280000000     0.270720000000     0.148900000000    -0.0687883  
C55      C      0.023990000000     0.232350000000     0.115740000000     0.0516915  
C56      C      0.484250000000     0.271830000000     0.115870000000     0.380343   
C57      C      0.148200000000     0.025840000000     0.238970000000     0.023047   
C58      C      0.148280000000     0.482820000000     0.274780000000    -0.0705248  
C59      C      0.115210000000     0.025200000000     0.238210000000     0.0510317  
C60      C      0.115180000000     0.484130000000     0.276310000000     0.377555   
C61      C      0.398270000000     0.026990000000     0.276430000000     0.0260407  
C62      C      0.398300000000     0.489500000000     0.234840000000    -0.0690251  
C63      C      0.365230000000     0.028740000000     0.274770000000     0.0582827  
C64      C      0.365270000000     0.488970000000     0.235290000000     0.383991   
C65      C      0.488880000000     0.397550000000     0.276200000000     0.0311241  
C66      C      0.026940000000     0.398250000000     0.235170000000    -0.064354   
C67      C      0.488270000000     0.364570000000     0.275000000000     0.0571455  
C68      C      0.028530000000     0.365110000000     0.236050000000     0.380402   
C69      C      0.485820000000     0.114910000000     0.239340000000     0.0223149  
C70      C      0.523670000000     0.114740000000     0.280590000000    -0.0740373  
C71      C      0.483920000000     0.147920000000     0.241270000000     0.0516202  
C72      C      0.524040000000     0.147810000000     0.280390000000     0.377579   
C73      C      0.506310000000     0.066220000000     0.758490000000     0.47354    
C74      C      0.507040000000     0.446550000000     0.756080000000     0.483295   
C75      C      0.446890000000     0.506940000000     0.756580000000     0.475318   
C76      C      0.066540000000     0.505750000000     0.757580000000     0.508598   
C77      C      0.007810000000     0.316190000000     0.755190000000     0.505333   
C78      C      0.004480000000     0.196460000000     0.760220000000     0.503101   
C79      C      0.507240000000     0.259270000000     0.817370000000     0.482291   
C80      C      0.505080000000     0.253460000000     0.697540000000     0.482059   
C81      C      0.316660000000     0.508290000000     0.755660000000     0.521332   
C82      C      0.196880000000     0.504980000000     0.757080000000     0.476588   
C83      C      0.257580000000     0.007840000000     0.816540000000     0.505204   
C84      C      0.256230000000     0.005440000000     0.696730000000     0.509282   
C85      C      0.255740000000     0.004890000000     0.566530000000     0.482484   
C86      C      0.257280000000     0.009100000000     0.946730000000     0.476116   
C87      C      0.258010000000     0.066900000000     0.009050000000     0.510644   
C88      C      0.254760000000     0.447150000000     0.003900000000     0.476938   
C89      C      0.066650000000     0.258610000000     0.007560000000     0.475766   
C90      C      0.446790000000     0.255490000000     0.007040000000     0.488584   
C91      C      0.507390000000     0.260270000000     0.947480000000     0.51646    
C92      C      0.505720000000     0.253850000000     0.567260000000     0.513255   
C93      C      0.256680000000     0.197210000000     0.009290000000     0.477135   
C94      C      0.256220000000     0.316960000000     0.003700000000     0.503562   
C95      C      0.196730000000     0.257580000000     0.506550000000     0.512909   
C96      C      0.316540000000     0.256360000000     0.506660000000     0.519767   
C97      C      0.398190000000     0.276430000000     0.525270000000     0.0338428  
C98      C      0.398190000000     0.233240000000     0.989650000000    -0.056309   
C99      C      0.365190000000     0.275750000000     0.526150000000     0.0633841  
C100     C      0.365100000000     0.234570000000     0.988150000000     0.389753   
C101     C      0.115520000000     0.279430000000     0.525850000000     0.0236659  
C102     C      0.114830000000     0.238830000000     0.987270000000    -0.0664578  
C103     C      0.148580000000     0.277680000000     0.526900000000     0.0531919  
C104     C      0.147840000000     0.239400000000     0.985950000000     0.383159   
C105     C      0.232680000000     0.398260000000     0.520280000000     0.0255558  
C106     C      0.275190000000     0.398880000000     0.983870000000    -0.0623615  
C107     C      0.234270000000     0.365240000000     0.521390000000     0.0547374  
C108     C      0.274670000000     0.365780000000     0.982580000000     0.385722   
C109     C      0.238700000000     0.148320000000     0.989170000000     0.0342943  
C110     C      0.275640000000     0.148860000000     0.531220000000    -0.0647402  
C111     C      0.238440000000     0.115370000000     0.989780000000     0.0626235  
C112     C      0.277690000000     0.115710000000     0.529750000000     0.378911   
C113     C      0.235180000000     0.025590000000     0.897870000000     0.0258469  
C114     C      0.280570000000     0.492830000000     0.898440000000    -0.0692954  
C115     C      0.236320000000     0.026490000000     0.864800000000     0.0528887  
C116     C      0.279730000000     0.491070000000     0.865390000000     0.380134   
C117     C      0.235890000000     0.024480000000     0.615150000000     0.0282945  
C118     C      0.275180000000     0.484580000000     0.615070000000    -0.0660981  
C119     C      0.237360000000     0.025780000000     0.648180000000     0.0544482  
C120     C      0.274250000000     0.483600000000     0.648160000000     0.382286   
C121     C      0.030490000000     0.244350000000     0.866060000000     0.0281751  
C122     C      0.985780000000     0.278050000000     0.865770000000    -0.0621249  
C123     C      0.029600000000     0.243560000000     0.899090000000     0.0581227  
C124     C      0.986950000000     0.279900000000     0.898880000000     0.386733   
C125     C      0.025150000000     0.233570000000     0.648870000000     0.0250488  
C126     C      0.483280000000     0.270720000000     0.648900000000    -0.0687406  
C127     C      0.023990000000     0.232350000000     0.615740000000     0.0518283  
C128     C      0.484250000000     0.271830000000     0.615870000000     0.380477   
C129     C      0.148200000000     0.025840000000     0.738970000000     0.0230974  
C130     C      0.148280000000     0.482820000000     0.774780000000    -0.0704398  
C131     C      0.115210000000     0.025200000000     0.738210000000     0.0511026  
C132     C      0.115180000000     0.484130000000     0.776310000000     0.377676   
C133     C      0.398270000000     0.026990000000     0.776430000000     0.0261388  
C134     C      0.398300000000     0.489500000000     0.734840000000    -0.0689681  
C135     C      0.365230000000     0.028740000000     0.774770000000     0.0583678  
C136     C      0.365270000000     0.488970000000     0.735290000000     0.38406    
C137     C      0.488880000000     0.397550000000     0.776200000000     0.0312503  
C138     C      0.026940000000     0.398250000000     0.735160000000    -0.0643816  
C139     C      0.488270000000     0.364570000000     0.775000000000     0.0572107  
C140     C      0.028530000000     0.365110000000     0.736050000000     0.380522   
C141     C      0.485820000000     0.114910000000     0.739340000000     0.0223797  
C142     C      0.523670000000     0.114740000000     0.780590000000    -0.0739438  
C143     C      0.483920000000     0.147920000000     0.741270000000     0.0516913  
C144     C      0.524040000000     0.147810000000     0.780390000000     0.377688   
C145     C      0.506310000000     0.566220000000     0.258490000000     0.474173   
C146     C      0.507040000000     0.946550000000     0.256080000000     0.482183   
C147     C      0.446890000000     0.006940000000     0.256580000000     0.474026   
C148     C      0.066540000000     0.005750000000     0.257580000000     0.507256   
C149     C      0.007810000000     0.816190000000     0.255180000000     0.505447   
C150     C      0.004480000000     0.696460000000     0.260220000000     0.503074   
C151     C      0.507240000000     0.759270000000     0.317370000000     0.482291   
C152     C      0.505080000000     0.753460000000     0.197540000000     0.481979   
C153     C      0.316660000000     0.008290000000     0.255660000000     0.51181    
C154     C      0.196880000000     0.004980000000     0.257090000000     0.467368   
C155     C      0.257580000000     0.507840000000     0.316540000000     0.514484   
C156     C      0.256230000000     0.505440000000     0.196730000000     0.518613   
C157     C      0.255740000000     0.504890000000     0.066530000000     0.483036   
C158     C      0.257280000000     0.509100000000     0.446730000000     0.478509   
C159     C      0.258010000000     0.566900000000     0.509050000000     0.512578   
C160     C      0.254760000000     0.947150000000     0.503900000000     0.477133   
C161     C      0.066650000000     0.758610000000     0.507560000000     0.477036   
C162     C      0.446790000000     0.755490000000     0.507040000000     0.489564   
C163     C      0.507390000000     0.760270000000     0.447480000000     0.517567   
C164     C      0.505720000000     0.753850000000     0.067260000000     0.512588   
C165     C      0.256680000000     0.697210000000     0.509290000000     0.486494   
C166     C      0.256220000000     0.816960000000     0.503700000000     0.512766   
C167     C      0.196730000000     0.757580000000     0.006550000000     0.503708   
C168     C      0.316540000000     0.756360000000     0.006660000000     0.510508   
C169     C      0.398190000000     0.776430000000     0.025270000000     0.0329144  
C170     C      0.398190000000     0.733240000000     0.489650000000    -0.062678   
C171     C      0.365190000000     0.775750000000     0.026150000000     0.0619711  
C172     C      0.365100000000     0.734570000000     0.488150000000     0.384637   
C173     C      0.115520000000     0.779440000000     0.025850000000     0.022794   
C174     C      0.114830000000     0.738830000000     0.487270000000    -0.072751   
C175     C      0.148580000000     0.777680000000     0.026900000000     0.0519026  
C176     C      0.147840000000     0.739400000000     0.485960000000     0.378163   
C177     C      0.232680000000     0.898270000000     0.020280000000     0.024956   
C178     C      0.275190000000     0.898880000000     0.483870000000    -0.0685853  
C179     C      0.234270000000     0.865240000000     0.021390000000     0.0535708  
C180     C      0.274670000000     0.865780000000     0.482580000000     0.380988   
C181     C      0.238700000000     0.648320000000     0.489170000000     0.0290157  
C182     C      0.275640000000     0.648860000000     0.031220000000    -0.0662101  
C183     C      0.238440000000     0.615370000000     0.489780000000     0.0563885  
C184     C      0.277690000000     0.615710000000     0.029760000000     0.378079   
C185     C      0.235180000000     0.525590000000     0.397870000000     0.0265462  
C186     C      0.280570000000     0.992830000000     0.398440000000    -0.0630233  
C187     C      0.236320000000     0.526490000000     0.364800000000     0.0541379  
C188     C      0.279730000000     0.991070000000     0.365390000000     0.384952   
C189     C      0.235890000000     0.524480000000     0.115150000000     0.0291416  
C190     C      0.275180000000     0.984590000000     0.115070000000    -0.0596561  
C191     C      0.237360000000     0.525780000000     0.148180000000     0.0558284  
C192     C      0.274250000000     0.983610000000     0.148160000000     0.387245   
C193     C      0.030490000000     0.744350000000     0.366060000000     0.0279844  
C194     C      0.985780000000     0.778050000000     0.365780000000    -0.0624022  
C195     C      0.029600000000     0.743560000000     0.399090000000     0.0578899  
C196     C      0.986950000000     0.779910000000     0.398880000000     0.386645   
C197     C      0.025150000000     0.733570000000     0.148870000000     0.0250114  
C198     C      0.483280000000     0.770710000000     0.148900000000    -0.0686472  
C199     C      0.023990000000     0.732360000000     0.115740000000     0.0518361  
C200     C      0.484250000000     0.771830000000     0.115870000000     0.380421   
C201     C      0.148200000000     0.525840000000     0.238970000000     0.0244134  
C202     C      0.148280000000     0.982820000000     0.274780000000    -0.0648982  
C203     C      0.115210000000     0.525200000000     0.238210000000     0.0520045  
C204     C      0.115180000000     0.984130000000     0.276310000000     0.383516   
C205     C      0.398270000000     0.526990000000     0.276430000000     0.0270883  
C206     C      0.398300000000     0.989500000000     0.234840000000    -0.0625193  
C207     C      0.365230000000     0.528740000000     0.274770000000     0.0598353  
C208     C      0.365270000000     0.988970000000     0.235290000000     0.388983   
C209     C      0.488880000000     0.897550000000     0.276200000000     0.0313925  
C210     C      0.026940000000     0.898250000000     0.235170000000    -0.0640885  
C211     C      0.488270000000     0.864570000000     0.275000000000     0.0574167  
C212     C      0.028530000000     0.865110000000     0.236050000000     0.380701   
C213     C      0.485820000000     0.614910000000     0.239340000000     0.0224268  
C214     C      0.523670000000     0.614740000000     0.280590000000    -0.0739252  
C215     C      0.483920000000     0.647920000000     0.241270000000     0.0516855  
C216     C      0.524040000000     0.647810000000     0.280390000000     0.377642   
C217     C      0.506310000000     0.566220000000     0.758490000000     0.474168   
C218     C      0.507040000000     0.946550000000     0.756080000000     0.48218    
C219     C      0.446890000000     0.006940000000     0.756580000000     0.474022   
C220     C      0.066540000000     0.005750000000     0.757580000000     0.507251   
C221     C      0.007810000000     0.816190000000     0.755190000000     0.505425   
C222     C      0.004480000000     0.696460000000     0.760220000000     0.50312    
C223     C      0.507240000000     0.759270000000     0.817370000000     0.482313   
C224     C      0.505080000000     0.753460000000     0.697540000000     0.482035   
C225     C      0.316660000000     0.008290000000     0.755660000000     0.511884   
C226     C      0.196880000000     0.004980000000     0.757080000000     0.46741    
C227     C      0.257580000000     0.507840000000     0.816540000000     0.514551   
C228     C      0.256230000000     0.505440000000     0.696730000000     0.518615   
C229     C      0.255740000000     0.504890000000     0.566530000000     0.483793   
C230     C      0.257280000000     0.509100000000     0.946730000000     0.477404   
C231     C      0.258010000000     0.566900000000     0.009050000000     0.511296   
C232     C      0.254760000000     0.947150000000     0.003900000000     0.47585    
C233     C      0.066650000000     0.758610000000     0.007560000000     0.475757   
C234     C      0.446790000000     0.755490000000     0.007040000000     0.488254   
C235     C      0.507390000000     0.760270000000     0.947480000000     0.516443   
C236     C      0.505720000000     0.753850000000     0.567260000000     0.51324    
C237     C      0.256680000000     0.697210000000     0.009290000000     0.477192   
C238     C      0.256220000000     0.816960000000     0.003700000000     0.503606   
C239     C      0.196730000000     0.757580000000     0.506550000000     0.51294    
C240     C      0.316540000000     0.756360000000     0.506660000000     0.519767   
C241     C      0.398190000000     0.776430000000     0.525270000000     0.0339247  
C242     C      0.398190000000     0.733240000000     0.989650000000    -0.0562074  
C243     C      0.365190000000     0.775750000000     0.526150000000     0.0634625  
C244     C      0.365100000000     0.734570000000     0.988150000000     0.389649   
C245     C      0.115520000000     0.779440000000     0.525850000000     0.0237051  
C246     C      0.114830000000     0.738830000000     0.987270000000    -0.0664135  
C247     C      0.148580000000     0.777680000000     0.526900000000     0.0533318  
C248     C      0.147840000000     0.739400000000     0.985950000000     0.383219   
C249     C      0.232680000000     0.898270000000     0.520280000000     0.0259131  
C250     C      0.275190000000     0.898880000000     0.983870000000    -0.0620912  
C251     C      0.234270000000     0.865240000000     0.521390000000     0.0550115  
C252     C      0.274670000000     0.865780000000     0.982580000000     0.38598    
C253     C      0.238700000000     0.648320000000     0.989170000000     0.0343317  
C254     C      0.275640000000     0.648860000000     0.531220000000    -0.0646871  
C255     C      0.238440000000     0.615370000000     0.989780000000     0.0627566  
C256     C      0.277690000000     0.615710000000     0.529750000000     0.379054   
C257     C      0.235180000000     0.525590000000     0.897870000000     0.026856   
C258     C      0.280570000000     0.992830000000     0.898440000000    -0.062752   
C259     C      0.236320000000     0.526490000000     0.864800000000     0.054406   
C260     C      0.279730000000     0.991070000000     0.865390000000     0.385224   
C261     C      0.235890000000     0.524480000000     0.615150000000     0.0292607  
C262     C      0.275180000000     0.984590000000     0.615070000000    -0.0595453  
C263     C      0.237360000000     0.525780000000     0.648180000000     0.0558817  
C264     C      0.274250000000     0.983610000000     0.648160000000     0.387295   
C265     C      0.030490000000     0.744350000000     0.866060000000     0.0282507  
C266     C      0.985780000000     0.778050000000     0.865770000000    -0.0620823  
C267     C      0.029600000000     0.743560000000     0.899090000000     0.0582007  
C268     C      0.986950000000     0.779910000000     0.898880000000     0.386922   
C269     C      0.025150000000     0.733570000000     0.648870000000     0.0250748  
C270     C      0.483280000000     0.770710000000     0.648900000000    -0.0685996  
C271     C      0.023990000000     0.732360000000     0.615740000000     0.0519728  
C272     C      0.484250000000     0.771830000000     0.615870000000     0.380554   
C273     C      0.148200000000     0.525840000000     0.738970000000     0.0244615  
C274     C      0.148280000000     0.982820000000     0.774780000000    -0.064827   
C275     C      0.115210000000     0.525200000000     0.738210000000     0.0520745  
C276     C      0.115180000000     0.984130000000     0.776310000000     0.383622   
C277     C      0.398270000000     0.526990000000     0.776430000000     0.0271846  
C278     C      0.398300000000     0.989500000000     0.734840000000    -0.0624774  
C279     C      0.365230000000     0.528740000000     0.774770000000     0.0599175  
C280     C      0.365270000000     0.988970000000     0.735290000000     0.38904    
C281     C      0.488880000000     0.897550000000     0.776200000000     0.0315179  
C282     C      0.026940000000     0.898250000000     0.735160000000    -0.0641168  
C283     C      0.488270000000     0.864570000000     0.775000000000     0.0574807  
C284     C      0.028530000000     0.865110000000     0.736050000000     0.380821   
C285     C      0.485820000000     0.614910000000     0.739340000000     0.0224915  
C286     C      0.523670000000     0.614740000000     0.780590000000    -0.073832   
C287     C      0.483920000000     0.647920000000     0.741270000000     0.0517566  
C288     C      0.524040000000     0.647810000000     0.780390000000     0.377751   
C289     C      0.006310000000     0.066220000000     0.258490000000     0.472316   
C290     C      0.007040000000     0.446550000000     0.256080000000     0.482139   
C291     C      0.946890000000     0.506940000000     0.256580000000     0.47427    
C292     C      0.566540000000     0.505750000000     0.257580000000     0.509198   
C293     C      0.507810000000     0.316190000000     0.255180000000     0.513985   
C294     C      0.504480000000     0.196460000000     0.260220000000     0.511871   
C295     C      0.007240000000     0.259270000000     0.317370000000     0.47339    
C296     C      0.005080000000     0.253460000000     0.197540000000     0.473102   
C297     C      0.816660000000     0.508290000000     0.255660000000     0.521393   
C298     C      0.696880000000     0.504980000000     0.257090000000     0.476557   
C299     C      0.757580000000     0.007840000000     0.316540000000     0.505139   
C300     C      0.756230000000     0.005440000000     0.196730000000     0.509303   
C301     C      0.755740000000     0.004890000000     0.066530000000     0.481721   
C302     C      0.757280000000     0.009100000000     0.446730000000     0.477211   
C303     C      0.758010000000     0.066900000000     0.509050000000     0.51192    
C304     C      0.754760000000     0.447150000000     0.503900000000     0.478214   
C305     C      0.566650000000     0.258610000000     0.507560000000     0.477671   
C306     C      0.946790000000     0.255490000000     0.507040000000     0.488794   
C307     C      0.007390000000     0.260270000000     0.447480000000     0.516275   
C308     C      0.005720000000     0.253850000000     0.067260000000     0.511304   
C309     C      0.756680000000     0.197210000000     0.509290000000     0.48646    
C310     C      0.756220000000     0.316960000000     0.503700000000     0.512753   
C311     C      0.696730000000     0.257580000000     0.006550000000     0.503704   
C312     C      0.816540000000     0.256360000000     0.006660000000     0.510427   
C313     C      0.898190000000     0.276430000000     0.025270000000     0.0330946  
C314     C      0.898190000000     0.233240000000     0.489650000000    -0.0625319  
C315     C      0.865190000000     0.275750000000     0.026150000000     0.0621737  
C316     C      0.865100000000     0.234570000000     0.488150000000     0.385036   
C317     C      0.615520000000     0.279430000000     0.025850000000     0.0228782  
C318     C      0.614840000000     0.238830000000     0.487270000000    -0.072808   
C319     C      0.648580000000     0.277680000000     0.026900000000     0.051824   
C320     C      0.647840000000     0.239400000000     0.485960000000     0.378227   
C321     C      0.732680000000     0.398260000000     0.020280000000     0.0246553  
C322     C      0.775190000000     0.398880000000     0.483870000000    -0.0688107  
C323     C      0.734270000000     0.365240000000     0.021390000000     0.0533555  
C324     C      0.774670000000     0.365780000000     0.482580000000     0.380799   
C325     C      0.738700000000     0.148320000000     0.489170000000     0.0290556  
C326     C      0.775640000000     0.148860000000     0.031220000000    -0.0661883  
C327     C      0.738440000000     0.115370000000     0.489780000000     0.0563059  
C328     C      0.777690000000     0.115710000000     0.029760000000     0.378063   
C329     C      0.735180000000     0.025590000000     0.397870000000     0.025594   
C330     C      0.780570000000     0.492830000000     0.398440000000    -0.0695129  
C331     C      0.736320000000     0.026490000000     0.364800000000     0.0526791  
C332     C      0.779730000000     0.491070000000     0.365390000000     0.379943   
C333     C      0.735890000000     0.024480000000     0.115150000000     0.0282311  
C334     C      0.775180000000     0.484580000000     0.115070000000    -0.0661909  
C335     C      0.737360000000     0.025780000000     0.148180000000     0.0544659  
C336     C      0.774250000000     0.483600000000     0.148160000000     0.382474   
C337     C      0.530490000000     0.244350000000     0.366060000000     0.0292099  
C338     C      0.485780000000     0.278050000000     0.365780000000    -0.0677668  
C339     C      0.529600000000     0.243560000000     0.399090000000     0.0587054  
C340     C      0.486950000000     0.279900000000     0.398880000000     0.380799   
C341     C      0.525150000000     0.233570000000     0.148870000000     0.0263904  
C342     C      0.983280000000     0.270720000000     0.148900000000    -0.0634451  
C343     C      0.523990000000     0.232350000000     0.115740000000     0.0526669  
C344     C      0.984250000000     0.271830000000     0.115870000000     0.386031   
C345     C      0.648200000000     0.025840000000     0.238970000000     0.0230898  
C346     C      0.648280000000     0.482820000000     0.274780000000    -0.0705273  
C347     C      0.615210000000     0.025200000000     0.238210000000     0.0511422  
C348     C      0.615180000000     0.484130000000     0.276310000000     0.377683   
C349     C      0.898270000000     0.026990000000     0.276430000000     0.0263162  
C350     C      0.898300000000     0.489500000000     0.234840000000    -0.068765   
C351     C      0.865230000000     0.028740000000     0.274770000000     0.0585679  
C352     C      0.865270000000     0.488970000000     0.235290000000     0.384271   
C353     C      0.988880000000     0.397550000000     0.276200000000     0.037223   
C354     C      0.526940000000     0.398250000000     0.235170000000    -0.0633395  
C355     C      0.988270000000     0.364570000000     0.275000000000     0.0623611  
C356     C      0.528530000000     0.365110000000     0.236050000000     0.381718   
C357     C      0.985820000000     0.114910000000     0.239340000000     0.028421   
C358     C      0.023670000000     0.114740000000     0.280590000000    -0.0750111  
C359     C      0.983930000000     0.147920000000     0.241270000000     0.0569709  
C360     C      0.024040000000     0.147810000000     0.280390000000     0.376336   
C361     C      0.006310000000     0.066220000000     0.758490000000     0.472314   
C362     C      0.007040000000     0.446550000000     0.756080000000     0.482135   
C363     C      0.946890000000     0.506940000000     0.756580000000     0.474267   
C364     C      0.566540000000     0.505750000000     0.757580000000     0.509191   
C365     C      0.507810000000     0.316190000000     0.755190000000     0.513945   
C366     C      0.504480000000     0.196460000000     0.760220000000     0.511899   
C367     C      0.007240000000     0.259270000000     0.817370000000     0.473436   
C368     C      0.005080000000     0.253460000000     0.697540000000     0.47317    
C369     C      0.816660000000     0.508290000000     0.755660000000     0.521449   
C370     C      0.696880000000     0.504980000000     0.757080000000     0.47658    
C371     C      0.757580000000     0.007840000000     0.816540000000     0.50523    
C372     C      0.756230000000     0.005440000000     0.696730000000     0.509318   
C373     C      0.755740000000     0.004890000000     0.566530000000     0.482475   
C374     C      0.757280000000     0.009100000000     0.946730000000     0.476112   
C375     C      0.758010000000     0.066900000000     0.009050000000     0.510643   
C376     C      0.754760000000     0.447150000000     0.003900000000     0.476929   
C377     C      0.566650000000     0.258610000000     0.007560000000     0.476388   
C378     C      0.946790000000     0.255490000000     0.007040000000     0.487485   
C379     C      0.007390000000     0.260270000000     0.947480000000     0.515152   
C380     C      0.005720000000     0.253850000000     0.567260000000     0.511956   
C381     C      0.756680000000     0.197210000000     0.009290000000     0.477164   
C382     C      0.756220000000     0.316960000000     0.003700000000     0.503588   
C383     C      0.696730000000     0.257580000000     0.506550000000     0.512944   
C384     C      0.816540000000     0.256360000000     0.506660000000     0.519679   
C385     C      0.898190000000     0.276430000000     0.525270000000     0.0341048  
C386     C      0.898190000000     0.233240000000     0.989650000000    -0.0560811  
C387     C      0.865190000000     0.275750000000     0.526150000000     0.0636607  
C388     C      0.865100000000     0.234570000000     0.988150000000     0.390043   
C389     C      0.615520000000     0.279430000000     0.525850000000     0.0237908  
C390     C      0.614840000000     0.238830000000     0.987270000000    -0.0664623  
C391     C      0.648580000000     0.277680000000     0.526900000000     0.053255   
C392     C      0.647840000000     0.239400000000     0.985950000000     0.383286   
C393     C      0.732680000000     0.398260000000     0.520280000000     0.0256143  
C394     C      0.775190000000     0.398880000000     0.983870000000    -0.0622991  
C395     C      0.734270000000     0.365240000000     0.521390000000     0.0547978  
C396     C      0.774670000000     0.365780000000     0.982580000000     0.385796   
C397     C      0.738700000000     0.148320000000     0.989170000000     0.0343659  
C398     C      0.775640000000     0.148860000000     0.531220000000    -0.0646676  
C399     C      0.738440000000     0.115370000000     0.989780000000     0.0626619  
C400     C      0.777690000000     0.115710000000     0.529750000000     0.379037   
C401     C      0.735180000000     0.025590000000     0.897870000000     0.0259053  
C402     C      0.780570000000     0.492830000000     0.898440000000    -0.0692082  
C403     C      0.736320000000     0.026490000000     0.864800000000     0.0529513  
C404     C      0.779730000000     0.491070000000     0.865390000000     0.380231   
C405     C      0.735890000000     0.024480000000     0.615150000000     0.0283481  
C406     C      0.775180000000     0.484580000000     0.615070000000    -0.0660761  
C407     C      0.737360000000     0.025780000000     0.648180000000     0.0545204  
C408     C      0.774250000000     0.483600000000     0.648160000000     0.382531   
C409     C      0.530490000000     0.244350000000     0.866060000000     0.0294719  
C410     C      0.485780000000     0.278050000000     0.865770000000    -0.0674299  
C411     C      0.529600000000     0.243560000000     0.899090000000     0.0590151  
C412     C      0.486950000000     0.279900000000     0.898880000000     0.381109   
C413     C      0.525150000000     0.233570000000     0.648870000000     0.0264531  
C414     C      0.983280000000     0.270720000000     0.648900000000    -0.0634059  
C415     C      0.523990000000     0.232350000000     0.615740000000     0.0528038  
C416     C      0.984250000000     0.271830000000     0.615870000000     0.386161   
C417     C      0.648200000000     0.025840000000     0.738970000000     0.0231402  
C418     C      0.648280000000     0.482820000000     0.774780000000    -0.0704424  
C419     C      0.615210000000     0.025200000000     0.738210000000     0.0512131  
C420     C      0.615180000000     0.484130000000     0.776310000000     0.377804   
C421     C      0.898270000000     0.026990000000     0.776430000000     0.0264132  
C422     C      0.898300000000     0.489500000000     0.734840000000    -0.0687086  
C423     C      0.865230000000     0.028740000000     0.774770000000     0.058652   
C424     C      0.865270000000     0.488970000000     0.735290000000     0.384339   
C425     C      0.988880000000     0.397550000000     0.776200000000     0.0373323  
C426     C      0.526940000000     0.398250000000     0.735160000000    -0.0633679  
C427     C      0.988270000000     0.364570000000     0.775000000000     0.062413   
C428     C      0.528530000000     0.365110000000     0.736050000000     0.381836   
C429     C      0.985820000000     0.114910000000     0.739340000000     0.0284706  
C430     C      0.023670000000     0.114740000000     0.780590000000    -0.074916   
C431     C      0.983930000000     0.147920000000     0.741270000000     0.0570285  
C432     C      0.024040000000     0.147810000000     0.780390000000     0.376447   
C433     C      0.006310000000     0.566220000000     0.258490000000     0.472943   
C434     C      0.007040000000     0.946550000000     0.256080000000     0.481024   
C435     C      0.946890000000     0.006940000000     0.256580000000     0.472976   
C436     C      0.566540000000     0.005750000000     0.257580000000     0.507848   
C437     C      0.507810000000     0.816190000000     0.255180000000     0.514052   
C438     C      0.504480000000     0.696460000000     0.260220000000     0.511877   
C439     C      0.007240000000     0.759270000000     0.317370000000     0.473431   
C440     C      0.005080000000     0.753460000000     0.197540000000     0.473096   
C441     C      0.816660000000     0.008290000000     0.255660000000     0.511952   
C442     C      0.696880000000     0.004980000000     0.257090000000     0.467373   
C443     C      0.757580000000     0.507840000000     0.316540000000     0.514491   
C444     C      0.756230000000     0.505440000000     0.196730000000     0.51863    
C445     C      0.755740000000     0.504890000000     0.066530000000     0.483026   
C446     C      0.757280000000     0.509100000000     0.446730000000     0.478501   
C447     C      0.758010000000     0.566900000000     0.509050000000     0.512574   
C448     C      0.754760000000     0.947150000000     0.503900000000     0.477125   
C449     C      0.566650000000     0.758610000000     0.507560000000     0.477659   
C450     C      0.946790000000     0.755490000000     0.507040000000     0.488467   
C451     C      0.007390000000     0.760270000000     0.447480000000     0.516257   
C452     C      0.005720000000     0.753850000000     0.067260000000     0.511293   
C453     C      0.756680000000     0.697210000000     0.509290000000     0.486504   
C454     C      0.756220000000     0.816960000000     0.503700000000     0.512774   
C455     C      0.696730000000     0.757580000000     0.006550000000     0.503753   
C456     C      0.816540000000     0.756360000000     0.006660000000     0.510445   
C457     C      0.898190000000     0.776430000000     0.025270000000     0.0331774  
C458     C      0.898190000000     0.733240000000     0.489650000000    -0.0624158  
C459     C      0.865190000000     0.775750000000     0.026150000000     0.0622539  
C460     C      0.865100000000     0.734570000000     0.488150000000     0.384943   
C461     C      0.615520000000     0.779440000000     0.025850000000     0.022918   
C462     C      0.614840000000     0.738830000000     0.487270000000    -0.0727484  
C463     C      0.648580000000     0.777680000000     0.026900000000     0.0519663  
C464     C      0.647840000000     0.739400000000     0.485960000000     0.378299   
C465     C      0.732680000000     0.898270000000     0.020280000000     0.0250146  
C466     C      0.775190000000     0.898880000000     0.483870000000    -0.0685079  
C467     C      0.734270000000     0.865240000000     0.021390000000     0.0536327  
C468     C      0.774670000000     0.865780000000     0.482580000000     0.381074   
C469     C      0.738700000000     0.648320000000     0.489170000000     0.0291014  
C470     C      0.775640000000     0.648860000000     0.031220000000    -0.0661345  
C471     C      0.738440000000     0.615370000000     0.489780000000     0.0564419  
C472     C      0.777690000000     0.615710000000     0.029760000000     0.378206   
C473     C      0.735180000000     0.525590000000     0.397870000000     0.0266042  
C474     C      0.780570000000     0.992830000000     0.398440000000    -0.062952   
C475     C      0.736320000000     0.526490000000     0.364800000000     0.0541986  
C476     C      0.779730000000     0.991070000000     0.365390000000     0.385037   
C477     C      0.735890000000     0.524480000000     0.115150000000     0.0291941  
C478     C      0.775180000000     0.984590000000     0.115070000000    -0.0596499  
C479     C      0.737360000000     0.525780000000     0.148180000000     0.0558981  
C480     C      0.774250000000     0.983610000000     0.148160000000     0.387477   
C481     C      0.530490000000     0.744350000000     0.366060000000     0.0292835  
C482     C      0.485780000000     0.778050000000     0.365780000000    -0.0677103  
C483     C      0.529600000000     0.743560000000     0.399090000000     0.0587834  
C484     C      0.486950000000     0.779910000000     0.398880000000     0.381007   
C485     C      0.525150000000     0.733570000000     0.148870000000     0.0264142  
C486     C      0.983280000000     0.770710000000     0.148900000000    -0.0633165  
C487     C      0.523990000000     0.732360000000     0.115740000000     0.0528101  
C488     C      0.984250000000     0.771830000000     0.115870000000     0.386093   
C489     C      0.648200000000     0.525840000000     0.238970000000     0.0244557  
C490     C      0.648280000000     0.982820000000     0.274780000000    -0.0649081  
C491     C      0.615210000000     0.525200000000     0.238210000000     0.0521153  
C492     C      0.615180000000     0.984130000000     0.276310000000     0.38364    
C493     C      0.898270000000     0.526990000000     0.276430000000     0.027361   
C494     C      0.898300000000     0.989500000000     0.234840000000    -0.0622935  
C495     C      0.865230000000     0.528740000000     0.274770000000     0.0601153  
C496     C      0.865270000000     0.988970000000     0.235290000000     0.389245   
C497     C      0.988880000000     0.897550000000     0.276200000000     0.0374579  
C498     C      0.526940000000     0.898250000000     0.235170000000    -0.0630765  
C499     C      0.988270000000     0.864570000000     0.275000000000     0.0626129  
C500     C      0.528530000000     0.865110000000     0.236050000000     0.382013   
C501     C      0.985820000000     0.614910000000     0.239340000000     0.028529   
C502     C      0.023670000000     0.614740000000     0.280590000000    -0.0748992  
C503     C      0.983930000000     0.647920000000     0.241270000000     0.0570275  
C504     C      0.024040000000     0.647810000000     0.280390000000     0.3764     
C505     C      0.006310000000     0.566220000000     0.758490000000     0.47294    
C506     C      0.007040000000     0.946550000000     0.756080000000     0.481022   
C507     C      0.946890000000     0.006940000000     0.756580000000     0.472974   
C508     C      0.566540000000     0.005750000000     0.757580000000     0.507842   
C509     C      0.507810000000     0.816190000000     0.755190000000     0.514012   
C510     C      0.504480000000     0.696460000000     0.760220000000     0.511905   
C511     C      0.007240000000     0.759270000000     0.817370000000     0.473477   
C512     C      0.005080000000     0.753460000000     0.697540000000     0.473165   
C513     C      0.816660000000     0.008290000000     0.755660000000     0.512026   
C514     C      0.696880000000     0.004980000000     0.757080000000     0.467415   
C515     C      0.757580000000     0.507840000000     0.816540000000     0.514558   
C516     C      0.756230000000     0.505440000000     0.696730000000     0.518632   
C517     C      0.755740000000     0.504890000000     0.566530000000     0.483782   
C518     C      0.757280000000     0.509100000000     0.946730000000     0.477398   
C519     C      0.758010000000     0.566900000000     0.009050000000     0.511294   
C520     C      0.754760000000     0.947150000000     0.003900000000     0.475844   
C521     C      0.566650000000     0.758610000000     0.007560000000     0.476377   
C522     C      0.946790000000     0.755490000000     0.007040000000     0.487161   
C523     C      0.007390000000     0.760270000000     0.947480000000     0.515136   
C524     C      0.005720000000     0.753850000000     0.567260000000     0.511943   
C525     C      0.756680000000     0.697210000000     0.009290000000     0.47722    
C526     C      0.756220000000     0.816960000000     0.003700000000     0.503631   
C527     C      0.696730000000     0.757580000000     0.506550000000     0.512975   
C528     C      0.816540000000     0.756360000000     0.506660000000     0.519679   
C529     C      0.898190000000     0.776430000000     0.525270000000     0.034186   
C530     C      0.898190000000     0.733240000000     0.989650000000    -0.05598    
C531     C      0.865190000000     0.775750000000     0.526150000000     0.0637381  
C532     C      0.865100000000     0.734570000000     0.988150000000     0.389938   
C533     C      0.615520000000     0.779440000000     0.525850000000     0.0238297  
C534     C      0.614840000000     0.738830000000     0.987270000000    -0.0664182  
C535     C      0.648580000000     0.777680000000     0.526900000000     0.0533948  
C536     C      0.647840000000     0.739400000000     0.985950000000     0.383346   
C537     C      0.732680000000     0.898270000000     0.520280000000     0.0259709  
C538     C      0.775190000000     0.898880000000     0.983870000000    -0.0620296  
C539     C      0.734270000000     0.865240000000     0.521390000000     0.0550713  
C540     C      0.774670000000     0.865780000000     0.982580000000     0.386053   
C541     C      0.738700000000     0.648320000000     0.989170000000     0.0344034  
C542     C      0.775640000000     0.648860000000     0.531220000000    -0.0646145  
C543     C      0.738440000000     0.615370000000     0.989780000000     0.0627949  
C544     C      0.777690000000     0.615710000000     0.529750000000     0.379179   
C545     C      0.735180000000     0.525590000000     0.897870000000     0.0269132  
C546     C      0.780570000000     0.992830000000     0.898440000000    -0.0626818  
C547     C      0.736320000000     0.526490000000     0.864800000000     0.054466   
C548     C      0.779730000000     0.991070000000     0.865390000000     0.385308   
C549     C      0.735890000000     0.524480000000     0.615150000000     0.0293132  
C550     C      0.775180000000     0.984590000000     0.615070000000    -0.0595394  
C551     C      0.737360000000     0.525780000000     0.648180000000     0.0559515  
C552     C      0.774250000000     0.983610000000     0.648160000000     0.387527   
C553     C      0.530490000000     0.744350000000     0.866060000000     0.0295447  
C554     C      0.485780000000     0.778050000000     0.865770000000    -0.0673742  
C555     C      0.529600000000     0.743560000000     0.899090000000     0.0590921  
C556     C      0.486950000000     0.779910000000     0.898880000000     0.381315   
C557     C      0.525150000000     0.733570000000     0.648870000000     0.026477   
C558     C      0.983280000000     0.770710000000     0.648900000000    -0.0632773  
C559     C      0.523990000000     0.732360000000     0.615740000000     0.0529469  
C560     C      0.984250000000     0.771830000000     0.615870000000     0.386223   
C561     C      0.648200000000     0.525840000000     0.738970000000     0.0245037  
C562     C      0.648280000000     0.982820000000     0.774780000000    -0.0648371  
C563     C      0.615210000000     0.525200000000     0.738210000000     0.0521853  
C564     C      0.615180000000     0.984130000000     0.776310000000     0.383746   
C565     C      0.898270000000     0.526990000000     0.776430000000     0.0274563  
C566     C      0.898300000000     0.989500000000     0.734840000000    -0.0622523  
C567     C      0.865230000000     0.528740000000     0.774770000000     0.0601964  
C568     C      0.865270000000     0.988970000000     0.735290000000     0.389301   
C569     C      0.988880000000     0.897550000000     0.776200000000     0.0375664  
C570     C      0.526940000000     0.898250000000     0.735160000000    -0.0631057  
C571     C      0.988270000000     0.864570000000     0.775000000000     0.0626636  
C572     C      0.528530000000     0.865110000000     0.736050000000     0.38213    
C573     C      0.985820000000     0.614910000000     0.739340000000     0.0285784  
C574     C      0.023670000000     0.614740000000     0.780590000000    -0.0748044  
C575     C      0.983930000000     0.647920000000     0.741270000000     0.0570851  
C576     C      0.024040000000     0.647810000000     0.780390000000     0.376511   
F1       F      0.349610000000     0.213440000000     0.469410000000    -0.436678   
F2       F      0.162900000000     0.219300000000     0.465770000000    -0.44681    
F3       F      0.295830000000     0.350640000000     0.463600000000    -0.434616   
F4       F      0.297300000000     0.100380000000     0.050180000000    -0.44127    
F5       F      0.302080000000     0.473550000000     0.350190000000    -0.438472   
F6       F      0.293510000000     0.462920000000     0.163630000000    -0.415829   
F7       F      0.465060000000     0.297780000000     0.414310000000    -0.437674   
F8       F      0.463690000000     0.291270000000     0.100470000000    -0.444304   
F9       F      0.099740000000     0.463020000000     0.295110000000    -0.440085   
F10      F      0.349880000000     0.469640000000     0.214600000000    -0.414499   
F11      F      0.048500000000     0.349960000000     0.215840000000    -0.439414   
F12      F      0.543480000000     0.163170000000     0.300980000000    -0.44617    
F13      F      0.349610000000     0.213440000000     0.969410000000    -0.435543   
F14      F      0.162900000000     0.219300000000     0.965770000000    -0.446105   
F15      F      0.295830000000     0.350640000000     0.963600000000    -0.433502   
F16      F      0.297300000000     0.100380000000     0.550180000000    -0.440696   
F17      F      0.302080000000     0.473550000000     0.850190000000    -0.438132   
F18      F      0.293510000000     0.462920000000     0.663630000000    -0.415714   
F19      F      0.465060000000     0.297780000000     0.914310000000    -0.436412   
F20      F      0.463690000000     0.291270000000     0.600470000000    -0.444078   
F21      F      0.099740000000     0.463020000000     0.795110000000    -0.439749   
F22      F      0.349880000000     0.469640000000     0.714600000000    -0.414403   
F23      F      0.048500000000     0.349960000000     0.715840000000    -0.439312   
F24      F      0.543480000000     0.163170000000     0.800980000000    -0.445938   
F25      F      0.349610000000     0.713430000000     0.469410000000    -0.43647    
F26      F      0.162900000000     0.719300000000     0.465770000000    -0.446722   
F27      F      0.295830000000     0.850640000000     0.463600000000    -0.434294   
F28      F      0.297300000000     0.600380000000     0.050180000000    -0.440864   
F29      F      0.302080000000     0.973550000000     0.350190000000    -0.437194   
F30      F      0.293510000000     0.962930000000     0.163630000000    -0.415148   
F31      F      0.465060000000     0.797780000000     0.414310000000    -0.437421   
F32      F      0.463690000000     0.791270000000     0.100470000000    -0.444035   
F33      F      0.099740000000     0.963020000000     0.295110000000    -0.43863    
F34      F      0.349880000000     0.969640000000     0.214600000000    -0.413661   
F35      F      0.048500000000     0.849960000000     0.215840000000    -0.439045   
F36      F      0.543480000000     0.663170000000     0.300980000000    -0.446052   
F37      F      0.349610000000     0.713430000000     0.969410000000    -0.435336   
F38      F      0.162900000000     0.719300000000     0.965770000000    -0.446018   
F39      F      0.295830000000     0.850640000000     0.963600000000    -0.433185   
F40      F      0.297300000000     0.600380000000     0.550180000000    -0.44029    
F41      F      0.302080000000     0.973550000000     0.850190000000    -0.436859   
F42      F      0.293510000000     0.962930000000     0.663630000000    -0.415034   
F43      F      0.465060000000     0.797780000000     0.914310000000    -0.436164   
F44      F      0.463690000000     0.791270000000     0.600470000000    -0.443809   
F45      F      0.099740000000     0.963020000000     0.795110000000    -0.4383     
F46      F      0.349880000000     0.969640000000     0.714600000000    -0.413565   
F47      F      0.048500000000     0.849960000000     0.715840000000    -0.438943   
F48      F      0.543480000000     0.663170000000     0.800980000000    -0.44582    
F49      F      0.849610000000     0.213440000000     0.469410000000    -0.436324   
F50      F      0.662900000000     0.219300000000     0.465770000000    -0.446726   
F51      F      0.795830000000     0.350640000000     0.463600000000    -0.434401   
F52      F      0.797300000000     0.100380000000     0.050180000000    -0.44094    
F53      F      0.802080000000     0.473550000000     0.350190000000    -0.438226   
F54      F      0.793500000000     0.462920000000     0.163630000000    -0.415715   
F55      F      0.965060000000     0.297780000000     0.414310000000    -0.436403   
F56      F      0.963690000000     0.291270000000     0.100470000000    -0.442985   
F57      F      0.599740000000     0.463020000000     0.295110000000    -0.439729   
F58      F      0.849880000000     0.469640000000     0.214600000000    -0.414188   
F59      F      0.548500000000     0.349960000000     0.215840000000    -0.438935   
F60      F      0.043480000000     0.163170000000     0.300980000000    -0.44651    
F61      F      0.849610000000     0.213440000000     0.969410000000    -0.435195   
F62      F      0.662900000000     0.219300000000     0.965770000000    -0.446023   
F63      F      0.795830000000     0.350640000000     0.963600000000    -0.433291   
F64      F      0.797300000000     0.100380000000     0.550180000000    -0.440368   
F65      F      0.802080000000     0.473550000000     0.850190000000    -0.437887   
F66      F      0.793500000000     0.462920000000     0.663630000000    -0.4156     
F67      F      0.965060000000     0.297780000000     0.914310000000    -0.435153   
F68      F      0.963690000000     0.291270000000     0.600470000000    -0.44276    
F69      F      0.599740000000     0.463020000000     0.795110000000    -0.439395   
F70      F      0.849880000000     0.469640000000     0.714600000000    -0.414091   
F71      F      0.548500000000     0.349960000000     0.715840000000    -0.438833   
F72      F      0.043480000000     0.163170000000     0.800980000000    -0.446277   
F73      F      0.849610000000     0.713430000000     0.469410000000    -0.436117   
F74      F      0.662900000000     0.719300000000     0.465770000000    -0.446638   
F75      F      0.795830000000     0.850640000000     0.463600000000    -0.434081   
F76      F      0.797300000000     0.600380000000     0.050180000000    -0.440535   
F77      F      0.802080000000     0.973550000000     0.350190000000    -0.436953   
F78      F      0.793500000000     0.962930000000     0.163630000000    -0.415037   
F79      F      0.965060000000     0.797780000000     0.414310000000    -0.436156   
F80      F      0.963690000000     0.791270000000     0.100470000000    -0.442721   
F81      F      0.599740000000     0.963020000000     0.295110000000    -0.438276   
F82      F      0.849880000000     0.969640000000     0.214600000000    -0.413353   
F83      F      0.548500000000     0.849960000000     0.215840000000    -0.438567   
F84      F      0.043480000000     0.663170000000     0.300980000000    -0.446392   
F85      F      0.849610000000     0.713430000000     0.969410000000    -0.434989   
F86      F      0.662900000000     0.719300000000     0.965770000000    -0.445936   
F87      F      0.795830000000     0.850640000000     0.963600000000    -0.432977   
F88      F      0.797300000000     0.600380000000     0.550180000000    -0.439963   
F89      F      0.802080000000     0.973550000000     0.850190000000    -0.43662    
F90      F      0.793500000000     0.962930000000     0.663630000000    -0.414924   
F91      F      0.965060000000     0.797780000000     0.914310000000    -0.43491    
F92      F      0.963690000000     0.791270000000     0.600470000000    -0.442497   
F93      F      0.599740000000     0.963020000000     0.795110000000    -0.437948   
F94      F      0.849880000000     0.969640000000     0.714600000000    -0.413259   
F95      F      0.548500000000     0.849960000000     0.715840000000    -0.438466   
F96      F      0.043480000000     0.663170000000     0.800980000000    -0.44616    
H1       H      0.352970000000     0.292690000000     0.041140000000     0.046327   
H2       H      0.410460000000     0.293580000000     0.039980000000     0.067799   
H3       H      0.410540000000     0.215950000000     0.475180000000     0.101199   
H4       H      0.161270000000     0.293070000000     0.043130000000     0.032741   
H5       H      0.103440000000     0.295660000000     0.041710000000     0.04337    
H6       H      0.102190000000     0.222780000000     0.471650000000     0.0934887  
H7       H      0.218040000000     0.352690000000     0.036890000000     0.0340455  
H8       H      0.215690000000     0.410300000000     0.035360000000     0.0430477  
H9       H      0.292070000000     0.411500000000     0.469160000000     0.100936   
H10      H      0.223080000000     0.103010000000     0.473280000000     0.0373215  
H11      H      0.223280000000     0.160350000000     0.472470000000     0.06246    
H12      H      0.290460000000     0.161490000000     0.048010000000     0.0984062  
H13      H      0.218680000000     0.040330000000     0.352220000000     0.0360509  
H14      H      0.217000000000     0.039140000000     0.409990000000     0.0421457  
H15      H      0.298600000000     0.479520000000     0.411040000000     0.0990481  
H16      H      0.222410000000     0.042660000000     0.160540000000     0.0327181  
H17      H      0.220280000000     0.040780000000     0.102860000000     0.0446739  
H18      H      0.290790000000     0.468360000000     0.102660000000     0.100772   
H19      H      0.046860000000     0.229150000000     0.411560000000     0.0386776  
H20      H      0.048170000000     0.230210000000     0.353880000000     0.062234   
H21      H      0.467830000000     0.291520000000     0.353240000000     0.0969792  
H22      H      0.040280000000     0.216810000000     0.103340000000     0.0329005  
H23      H      0.041900000000     0.218470000000     0.161190000000     0.0428487  
H24      H      0.466640000000     0.285970000000     0.161200000000     0.101701   
H25      H      0.103000000000     0.042120000000     0.223180000000     0.0348576  
H26      H      0.160420000000     0.042930000000     0.224140000000     0.0412719  
H27      H      0.160660000000     0.465580000000     0.289290000000     0.0987791  
H28      H      0.352890000000     0.044640000000     0.290760000000     0.0409254  
H29      H      0.410580000000     0.042110000000     0.293180000000     0.0460236  
H30      H      0.410600000000     0.473980000000     0.218440000000     0.102092   
H31      H      0.472370000000     0.352090000000     0.290890000000     0.0419747  
H32      H      0.473110000000     0.409500000000     0.292610000000     0.0512606  
H33      H      0.042300000000     0.410900000000     0.218890000000     0.100802   
H34      H      0.467850000000     0.160290000000     0.225470000000     0.0349154  
H35      H      0.470610000000     0.102670000000     0.222630000000     0.0432928  
H36      H      0.539390000000     0.102370000000     0.296740000000     0.0965749  
H37      H      0.352970000000     0.292690000000     0.541140000000     0.0465994  
H38      H      0.410460000000     0.293580000000     0.539980000000     0.0681437  
H39      H      0.410540000000     0.215950000000     0.975180000000     0.101821   
H40      H      0.161270000000     0.293070000000     0.543130000000     0.0327762  
H41      H      0.103440000000     0.295660000000     0.541700000000     0.0436578  
H42      H      0.102190000000     0.222780000000     0.971660000000     0.0939801  
H43      H      0.218040000000     0.352690000000     0.536890000000     0.0341488  
H44      H      0.215690000000     0.410300000000     0.535360000000     0.0433739  
H45      H      0.292070000000     0.411500000000     0.969150000000     0.101453   
H46      H      0.223080000000     0.103010000000     0.973280000000     0.037835   
H47      H      0.223280000000     0.160350000000     0.972470000000     0.0625552  
H48      H      0.290460000000     0.161490000000     0.548010000000     0.0986067  
H49      H      0.218680000000     0.040330000000     0.852220000000     0.036285   
H50      H      0.217000000000     0.039140000000     0.909990000000     0.0429395  
H51      H      0.298600000000     0.479520000000     0.911040000000     0.0998982  
H52      H      0.222410000000     0.042660000000     0.660540000000     0.0328197  
H53      H      0.220280000000     0.040780000000     0.602860000000     0.0449446  
H54      H      0.290790000000     0.468360000000     0.602660000000     0.101018   
H55      H      0.046860000000     0.229150000000     0.911560000000     0.0394533  
H56      H      0.048170000000     0.230210000000     0.853880000000     0.0624478  
H57      H      0.467830000000     0.291520000000     0.853240000000     0.0971855  
H58      H      0.040280000000     0.216810000000     0.603340000000     0.0331948  
H59      H      0.041900000000     0.218470000000     0.661190000000     0.0429604  
H60      H      0.466640000000     0.285970000000     0.661200000000     0.101782   
H61      H      0.103000000000     0.042120000000     0.723180000000     0.0349684  
H62      H      0.160420000000     0.042930000000     0.724140000000     0.0413446  
H63      H      0.160660000000     0.465580000000     0.789290000000     0.09898    
H64      H      0.352890000000     0.044640000000     0.790760000000     0.0410931  
H65      H      0.410580000000     0.042110000000     0.793180000000     0.0462654  
H66      H      0.410600000000     0.473980000000     0.718440000000     0.102205   
H67      H      0.472370000000     0.352090000000     0.790890000000     0.0421384  
H68      H      0.473110000000     0.409500000000     0.792620000000     0.051495   
H69      H      0.042300000000     0.410900000000     0.718890000000     0.100943   
H70      H      0.467850000000     0.160290000000     0.725470000000     0.034994   
H71      H      0.470610000000     0.102670000000     0.722630000000     0.0434086  
H72      H      0.539390000000     0.102370000000     0.796740000000     0.0968168  
H73      H      0.352970000000     0.792690000000     0.041140000000     0.0465029  
H74      H      0.410460000000     0.793580000000     0.039980000000     0.0680264  
H75      H      0.410540000000     0.715950000000     0.475180000000     0.101321   
H76      H      0.161270000000     0.793070000000     0.043130000000     0.0329309  
H77      H      0.103440000000     0.795660000000     0.041710000000     0.0436637  
H78      H      0.102190000000     0.722780000000     0.471650000000     0.0935903  
H79      H      0.218040000000     0.852690000000     0.036890000000     0.0343207  
H80      H      0.215690000000     0.910300000000     0.035360000000     0.0439856  
H81      H      0.292070000000     0.911500000000     0.469160000000     0.101704   
H82      H      0.223080000000     0.603010000000     0.473280000000     0.0374872  
H83      H      0.223280000000     0.660350000000     0.472470000000     0.0625385  
H84      H      0.290460000000     0.661490000000     0.048010000000     0.0985111  
H85      H      0.218680000000     0.540330000000     0.352220000000     0.0363432  
H86      H      0.217000000000     0.539140000000     0.409990000000     0.0425288  
H87      H      0.298600000000     0.979520000000     0.411040000000     0.0997027  
H88      H      0.222410000000     0.542660000000     0.160540000000     0.0327745  
H89      H      0.220280000000     0.540780000000     0.102860000000     0.0449433  
H90      H      0.290790000000     0.968360000000     0.102660000000     0.1012     
H91      H      0.046860000000     0.729150000000     0.411560000000     0.0387733  
H92      H      0.048170000000     0.730210000000     0.353880000000     0.0622917  
H93      H      0.467830000000     0.791520000000     0.353240000000     0.0971444  
H94      H      0.040280000000     0.716810000000     0.103340000000     0.0329957  
H95      H      0.041900000000     0.718470000000     0.161190000000     0.0429407  
H96      H      0.466640000000     0.785970000000     0.161200000000     0.101816   
H97      H      0.103000000000     0.542120000000     0.223180000000     0.0351067  
H98      H      0.160420000000     0.542930000000     0.224140000000     0.0413362  
H99      H      0.160660000000     0.965580000000     0.289290000000     0.0989715  
H100     H      0.352890000000     0.544640000000     0.290760000000     0.0412133  
H101     H      0.410580000000     0.542110000000     0.293180000000     0.0464018  
H102     H      0.410600000000     0.973980000000     0.218440000000     0.102636   
H103     H      0.472370000000     0.852090000000     0.290890000000     0.0422065  
H104     H      0.473110000000     0.909500000000     0.292610000000     0.0521194  
H105     H      0.042300000000     0.910900000000     0.218890000000     0.101724   
H106     H      0.467850000000     0.660290000000     0.225470000000     0.0350246  
H107     H      0.470610000000     0.602670000000     0.222630000000     0.0435752  
H108     H      0.539390000000     0.602370000000     0.296740000000     0.0968287  
H109     H      0.352970000000     0.792690000000     0.541140000000     0.0467743  
H110     H      0.410460000000     0.793580000000     0.539980000000     0.0683702  
H111     H      0.410540000000     0.715950000000     0.975180000000     0.101943   
H112     H      0.161270000000     0.793070000000     0.543130000000     0.032966   
H113     H      0.103440000000     0.795660000000     0.541700000000     0.0439506  
H114     H      0.102190000000     0.722780000000     0.971660000000     0.0940812  
H115     H      0.218040000000     0.852690000000     0.536890000000     0.034424   
H116     H      0.215690000000     0.910300000000     0.535360000000     0.044311   
H117     H      0.292070000000     0.911500000000     0.969150000000     0.102215   
H118     H      0.223080000000     0.603010000000     0.973280000000     0.038      
H119     H      0.223280000000     0.660350000000     0.972470000000     0.0626335  
H120     H      0.290460000000     0.661490000000     0.548010000000     0.0987116  
H121     H      0.218680000000     0.540330000000     0.852220000000     0.0365769  
H122     H      0.217000000000     0.539140000000     0.909990000000     0.0433217  
H123     H      0.298600000000     0.979520000000     0.911040000000     0.100546   
H124     H      0.222410000000     0.542660000000     0.660540000000     0.0328765  
H125     H      0.220280000000     0.540780000000     0.602860000000     0.0452139  
H126     H      0.290790000000     0.968360000000     0.602660000000     0.101446   
H127     H      0.046860000000     0.729150000000     0.911560000000     0.0395474  
H128     H      0.048170000000     0.730210000000     0.853880000000     0.062505   
H129     H      0.467830000000     0.791520000000     0.853240000000     0.0973493  
H130     H      0.040280000000     0.716810000000     0.603340000000     0.0332902  
H131     H      0.041900000000     0.718470000000     0.661190000000     0.0430524  
H132     H      0.466640000000     0.785970000000     0.661200000000     0.101896   
H133     H      0.103000000000     0.542120000000     0.723180000000     0.0352177  
H134     H      0.160420000000     0.542930000000     0.724140000000     0.0414094  
H135     H      0.160660000000     0.965580000000     0.789290000000     0.09917    
H136     H      0.352890000000     0.544640000000     0.790760000000     0.0413797  
H137     H      0.410580000000     0.542110000000     0.793180000000     0.0466425  
H138     H      0.410600000000     0.973980000000     0.718440000000     0.102748   
H139     H      0.472370000000     0.852090000000     0.790890000000     0.0423688  
H140     H      0.473110000000     0.909500000000     0.792620000000     0.0523503  
H141     H      0.042300000000     0.910900000000     0.718890000000     0.101863   
H142     H      0.467850000000     0.660290000000     0.725470000000     0.0351032  
H143     H      0.470610000000     0.602670000000     0.722630000000     0.0436911  
H144     H      0.539390000000     0.602370000000     0.796740000000     0.0970699  
H145     H      0.852970000000     0.292690000000     0.041140000000     0.0465345  
H146     H      0.910470000000     0.293580000000     0.039980000000     0.0685316  
H147     H      0.910540000000     0.215950000000     0.475180000000     0.102104   
H148     H      0.661270000000     0.293070000000     0.043130000000     0.032828   
H149     H      0.603440000000     0.295660000000     0.041710000000     0.0436233  
H150     H      0.602190000000     0.222780000000     0.471650000000     0.0936739  
H151     H      0.718040000000     0.352690000000     0.036890000000     0.0341159  
H152     H      0.715690000000     0.410300000000     0.035360000000     0.0431659  
H153     H      0.792070000000     0.411500000000     0.469160000000     0.101141   
H154     H      0.723080000000     0.103010000000     0.473280000000     0.0374155  
H155     H      0.723270000000     0.160350000000     0.472470000000     0.0625093  
H156     H      0.790460000000     0.161490000000     0.048010000000     0.098587   
H157     H      0.718680000000     0.040330000000     0.352220000000     0.0361173  
H158     H      0.717000000000     0.039140000000     0.409990000000     0.0422528  
H159     H      0.798600000000     0.479520000000     0.411040000000     0.0992928  
H160     H      0.722410000000     0.042660000000     0.160540000000     0.0327838  
H161     H      0.720280000000     0.040780000000     0.102860000000     0.0447772  
H162     H      0.790790000000     0.468360000000     0.102660000000     0.101004   
H163     H      0.546860000000     0.229150000000     0.411560000000     0.0388519  
H164     H      0.548170000000     0.230210000000     0.353880000000     0.0622384  
H165     H      0.967830000000     0.291520000000     0.353240000000     0.0969466  
H166     H      0.540280000000     0.216810000000     0.103340000000     0.0332016  
H167     H      0.541900000000     0.218470000000     0.161190000000     0.0430625  
H168     H      0.966640000000     0.285970000000     0.161200000000     0.101856   
H169     H      0.603000000000     0.042120000000     0.223180000000     0.0350795  
H170     H      0.660420000000     0.042930000000     0.224140000000     0.041356   
H171     H      0.660650000000     0.465580000000     0.289290000000     0.098897   
H172     H      0.852890000000     0.044640000000     0.290760000000     0.0411887  
H173     H      0.910580000000     0.042110000000     0.293180000000     0.0469205  
H174     H      0.910600000000     0.473980000000     0.218440000000     0.10294    
H175     H      0.972370000000     0.352090000000     0.290890000000     0.0420956  
H176     H      0.973110000000     0.409500000000     0.292610000000     0.05183    
H177     H      0.542300000000     0.410900000000     0.218890000000     0.101105   
H178     H      0.967850000000     0.160290000000     0.225470000000     0.0352498  
H179     H      0.970610000000     0.102670000000     0.222630000000     0.0439393  
H180     H      0.039390000000     0.102370000000     0.296740000000     0.0963074  
H181     H      0.852970000000     0.292690000000     0.541140000000     0.0468069  
H182     H      0.910470000000     0.293580000000     0.539980000000     0.068875   
H183     H      0.910540000000     0.215950000000     0.975180000000     0.10272    
H184     H      0.661270000000     0.293070000000     0.543130000000     0.0328634  
H185     H      0.603440000000     0.295660000000     0.541700000000     0.0439116  
H186     H      0.602190000000     0.222780000000     0.971660000000     0.0941667  
H187     H      0.718040000000     0.352690000000     0.536890000000     0.0342199  
H188     H      0.715690000000     0.410300000000     0.535360000000     0.0434925  
H189     H      0.792070000000     0.411500000000     0.969150000000     0.101655   
H190     H      0.723080000000     0.103010000000     0.973280000000     0.0379281  
H191     H      0.723270000000     0.160350000000     0.972470000000     0.0626056  
H192     H      0.790460000000     0.161490000000     0.548010000000     0.0987866  
H193     H      0.718680000000     0.040330000000     0.852220000000     0.0363509  
H194     H      0.717000000000     0.039140000000     0.909990000000     0.0430451  
H195     H      0.798600000000     0.479520000000     0.911040000000     0.100139   
H196     H      0.722410000000     0.042660000000     0.660540000000     0.0328854  
H197     H      0.720280000000     0.040780000000     0.602860000000     0.045048   
H198     H      0.790790000000     0.468360000000     0.602660000000     0.10125    
H199     H      0.546860000000     0.229150000000     0.911560000000     0.0396268  
H200     H      0.548170000000     0.230210000000     0.853880000000     0.0624525  
H201     H      0.967830000000     0.291520000000     0.853240000000     0.0971499  
H202     H      0.540280000000     0.216810000000     0.603340000000     0.0334963  
H203     H      0.541900000000     0.218470000000     0.661190000000     0.0431742  
H204     H      0.966640000000     0.285970000000     0.661200000000     0.101936   
H205     H      0.603000000000     0.042120000000     0.723180000000     0.0351904  
H206     H      0.660420000000     0.042930000000     0.724140000000     0.0414288  
H207     H      0.660650000000     0.465580000000     0.789290000000     0.0990975  
H208     H      0.852890000000     0.044640000000     0.790760000000     0.0413548  
H209     H      0.910580000000     0.042110000000     0.793180000000     0.0471584  
H210     H      0.910600000000     0.473980000000     0.718440000000     0.103051   
H211     H      0.972370000000     0.352090000000     0.790890000000     0.0422575  
H212     H      0.973110000000     0.409500000000     0.792620000000     0.052062   
H213     H      0.542300000000     0.410900000000     0.718890000000     0.101247   
H214     H      0.967850000000     0.160290000000     0.725470000000     0.0353282  
H215     H      0.970610000000     0.102670000000     0.722630000000     0.0440541  
H216     H      0.039390000000     0.102370000000     0.796740000000     0.09655    
H217     H      0.852970000000     0.792690000000     0.041140000000     0.046709   
H218     H      0.910470000000     0.793580000000     0.039980000000     0.0687558  
H219     H      0.910540000000     0.715950000000     0.475180000000     0.102225   
H220     H      0.661270000000     0.793070000000     0.043130000000     0.0330174  
H221     H      0.603440000000     0.795660000000     0.041710000000     0.0439162  
H222     H      0.602190000000     0.722780000000     0.471650000000     0.0937757  
H223     H      0.718040000000     0.852690000000     0.036890000000     0.0343906  
H224     H      0.715690000000     0.910300000000     0.035360000000     0.0441019  
H225     H      0.792070000000     0.911500000000     0.469160000000     0.101906   
H226     H      0.723080000000     0.603010000000     0.473280000000     0.0375813  
H227     H      0.723270000000     0.660350000000     0.472470000000     0.0625879  
H228     H      0.790460000000     0.661490000000     0.048010000000     0.0986914  
H229     H      0.718680000000     0.540330000000     0.352220000000     0.03641    
H230     H      0.717000000000     0.539140000000     0.409990000000     0.0426364  
H231     H      0.798600000000     0.979520000000     0.411040000000     0.0999435  
H232     H      0.722410000000     0.542660000000     0.160540000000     0.0328407  
H233     H      0.720280000000     0.540780000000     0.102860000000     0.045047   
H234     H      0.790790000000     0.968360000000     0.102660000000     0.10143    
H235     H      0.546860000000     0.729150000000     0.411560000000     0.0389478  
H236     H      0.548170000000     0.730210000000     0.353880000000     0.0622966  
H237     H      0.967830000000     0.791520000000     0.353240000000     0.0971103  
H238     H      0.540280000000     0.716810000000     0.103340000000     0.0332976  
H239     H      0.541900000000     0.718470000000     0.161190000000     0.043155   
H240     H      0.966640000000     0.785970000000     0.161200000000     0.101969   
H241     H      0.603000000000     0.542120000000     0.223180000000     0.035329   
H242     H      0.660420000000     0.542930000000     0.224140000000     0.0414206  
H243     H      0.660650000000     0.965580000000     0.289290000000     0.0990877  
H244     H      0.852890000000     0.544640000000     0.290760000000     0.0414759  
H245     H      0.910580000000     0.542110000000     0.293180000000     0.0472971  
H246     H      0.910600000000     0.973980000000     0.218440000000     0.103477   
H247     H      0.972370000000     0.852090000000     0.290890000000     0.0423257  
H248     H      0.973110000000     0.909500000000     0.292610000000     0.0526826  
H249     H      0.542300000000     0.910900000000     0.218890000000     0.102026   
H250     H      0.967850000000     0.660290000000     0.225470000000     0.035358   
H251     H      0.970610000000     0.602670000000     0.222630000000     0.0442202  
H252     H      0.039390000000     0.602370000000     0.296740000000     0.0965605  
H253     H      0.852970000000     0.792690000000     0.541140000000     0.0469805  
H254     H      0.910470000000     0.793580000000     0.539980000000     0.0690982  
H255     H      0.910540000000     0.715950000000     0.975180000000     0.102839   
H256     H      0.661270000000     0.793070000000     0.543130000000     0.0330528  
H257     H      0.603440000000     0.795660000000     0.541700000000     0.0442035  
H258     H      0.602190000000     0.722780000000     0.971660000000     0.094268   
H259     H      0.718040000000     0.852690000000     0.536890000000     0.0344944  
H260     H      0.715690000000     0.910300000000     0.535360000000     0.0444277  
H261     H      0.792070000000     0.911500000000     0.969150000000     0.102414   
H262     H      0.723080000000     0.603010000000     0.973280000000     0.0380933  
H263     H      0.723270000000     0.660350000000     0.972470000000     0.062684   
H264     H      0.790460000000     0.661490000000     0.548010000000     0.098891   
H265     H      0.718680000000     0.540330000000     0.852220000000     0.0366433  
H266     H      0.717000000000     0.539140000000     0.909990000000     0.0434276  
H267     H      0.798600000000     0.979520000000     0.911040000000     0.100783   
H268     H      0.722410000000     0.542660000000     0.660540000000     0.0329427  
H269     H      0.720280000000     0.540780000000     0.602860000000     0.0453177  
H270     H      0.790790000000     0.968360000000     0.602660000000     0.101675   
H271     H      0.546860000000     0.729150000000     0.911560000000     0.0397211  
H272     H      0.548170000000     0.730210000000     0.853880000000     0.0625101  
H273     H      0.967830000000     0.791520000000     0.853240000000     0.0973124  
H274     H      0.540280000000     0.716810000000     0.603340000000     0.0335924  
H275     H      0.541900000000     0.718470000000     0.661190000000     0.0432668  
H276     H      0.966640000000     0.785970000000     0.661200000000     0.102049   
H277     H      0.603000000000     0.542120000000     0.723180000000     0.0354401  
H278     H      0.660420000000     0.542930000000     0.724140000000     0.0414938  
H279     H      0.660650000000     0.965580000000     0.789290000000     0.0992857  
H280     H      0.852890000000     0.544640000000     0.790760000000     0.0416408  
H281     H      0.910580000000     0.542110000000     0.793180000000     0.047534   
H282     H      0.910600000000     0.973980000000     0.718440000000     0.103587   
H283     H      0.972370000000     0.852090000000     0.790890000000     0.0424863  
H284     H      0.973110000000     0.909500000000     0.792620000000     0.0529112  
H285     H      0.542300000000     0.910900000000     0.718890000000     0.102165   
H286     H      0.967850000000     0.660290000000     0.725470000000     0.0354365  
H287     H      0.970610000000     0.602670000000     0.722630000000     0.0443351  
H288     H      0.039390000000     0.602370000000     0.796740000000     0.0968024  
N1       N      0.414500000000     0.254840000000     0.007430000000    -0.166562   
N2       N      0.348810000000     0.255530000000     0.006870000000    -0.238793   
N3       N      0.098900000000     0.259240000000     0.506760000000    -0.167006   
N4       N      0.164500000000     0.258180000000     0.006470000000    -0.242318   
N5       N      0.253960000000     0.414890000000     0.502450000000    -0.166357   
N6       N      0.254960000000     0.349190000000     0.502260000000    -0.2387     
N7       N      0.256800000000     0.164910000000     0.510280000000    -0.163824   
N8       N      0.258460000000     0.099200000000     0.509470000000    -0.238244   
N9       N      0.257740000000     0.009310000000     0.414450000000    -0.170545   
N10      N      0.257950000000     0.008460000000     0.348800000000    -0.241654   
N11      N      0.255480000000     0.004510000000     0.098820000000    -0.169303   
N12      N      0.255950000000     0.004850000000     0.164470000000    -0.240341   
N13      N      0.507880000000     0.260670000000     0.349620000000    -0.164886   
N14      N      0.508200000000     0.261720000000     0.415270000000    -0.239396   
N15      N      0.504470000000     0.252460000000     0.165230000000    -0.165279   
N16      N      0.504410000000     0.252380000000     0.099490000000    -0.239286   
N17      N      0.164580000000     0.504320000000     0.256840000000    -0.167044   
N18      N      0.098850000000     0.505020000000     0.257540000000    -0.237736   
N19      N      0.414600000000     0.507760000000     0.256050000000    -0.165515   
N20      N      0.348930000000     0.508950000000     0.254980000000    -0.235717   
N21      N      0.007590000000     0.414230000000     0.255720000000    -0.167773   
N22      N      0.008490000000     0.348490000000     0.255410000000    -0.240034   
N23      N      0.505340000000     0.098510000000     0.259380000000    -0.166585   
N24      N      0.003830000000     0.164190000000     0.260980000000    -0.241977   
N25      N      0.414500000000     0.254840000000     0.507430000000    -0.162781   
N26      N      0.348810000000     0.255530000000     0.506870000000    -0.236363   
N27      N      0.098900000000     0.259240000000     0.006760000000    -0.170761   
N28      N      0.164500000000     0.258180000000     0.506470000000    -0.239936   
N29      N      0.253960000000     0.414890000000     0.002450000000    -0.170133   
N30      N      0.254960000000     0.349190000000     0.002260000000    -0.241117   
N31      N      0.256800000000     0.164910000000     0.010280000000    -0.1663     
N32      N      0.258460000000     0.099200000000     0.009460000000    -0.241937   
N33      N      0.257740000000     0.009310000000     0.914450000000    -0.169963   
N34      N      0.257950000000     0.008460000000     0.848800000000    -0.241616   
N35      N      0.255480000000     0.004510000000     0.598810000000    -0.169457   
N36      N      0.255950000000     0.004850000000     0.664470000000    -0.240329   
N37      N      0.507880000000     0.260670000000     0.849620000000    -0.164858   
N38      N      0.508200000000     0.261720000000     0.915270000000    -0.238842   
N39      N      0.504470000000     0.252460000000     0.665230000000    -0.165268   
N40      N      0.504410000000     0.252380000000     0.599490000000    -0.239353   
N41      N      0.164580000000     0.504320000000     0.756840000000    -0.167022   
N42      N      0.098850000000     0.505020000000     0.757540000000    -0.237702   
N43      N      0.414600000000     0.507760000000     0.756050000000    -0.165473   
N44      N      0.348930000000     0.508950000000     0.754980000000    -0.235708   
N45      N      0.007590000000     0.414230000000     0.755720000000    -0.167716   
N46      N      0.008490000000     0.348490000000     0.755410000000    -0.240003   
N47      N      0.505340000000     0.098510000000     0.759380000000    -0.166541   
N48      N      0.003830000000     0.164190000000     0.760980000000    -0.241956   
N49      N      0.414500000000     0.754840000000     0.007430000000    -0.166464   
N50      N      0.348810000000     0.755530000000     0.006870000000    -0.238746   
N51      N      0.098900000000     0.759240000000     0.506760000000    -0.166938   
N52      N      0.164500000000     0.758180000000     0.006470000000    -0.242303   
N53      N      0.253960000000     0.914890000000     0.502450000000    -0.165797   
N54      N      0.254960000000     0.849190000000     0.502260000000    -0.238663   
N55      N      0.256800000000     0.664910000000     0.510280000000    -0.163813   
N56      N      0.258460000000     0.599200000000     0.509470000000    -0.238314   
N57      N      0.257740000000     0.509310000000     0.414450000000    -0.166731   
N58      N      0.257950000000     0.508460000000     0.348800000000    -0.239207   
N59      N      0.255480000000     0.504510000000     0.098820000000    -0.165476   
N60      N      0.255950000000     0.504850000000     0.164470000000    -0.237848   
N61      N      0.507880000000     0.760670000000     0.349620000000    -0.164853   
N62      N      0.508200000000     0.761720000000     0.415270000000    -0.239329   
N63      N      0.504470000000     0.752460000000     0.165230000000    -0.165254   
N64      N      0.504410000000     0.752380000000     0.099490000000    -0.23927    
N65      N      0.164580000000     0.004320000000     0.256840000000    -0.169564   
N66      N      0.098850000000     0.005020000000     0.257540000000    -0.241452   
N67      N      0.414600000000     0.007760000000     0.256050000000    -0.169343   
N68      N      0.348930000000     0.008950000000     0.254980000000    -0.238174   
N69      N      0.007590000000     0.914230000000     0.255720000000    -0.16719    
N70      N      0.008490000000     0.848490000000     0.255410000000    -0.240005   
N71      N      0.505340000000     0.598510000000     0.259380000000    -0.166646   
N72      N      0.003830000000     0.664190000000     0.260980000000    -0.241965   
N73      N      0.414500000000     0.754840000000     0.507430000000    -0.16269    
N74      N      0.348810000000     0.755530000000     0.506870000000    -0.23632    
N75      N      0.098900000000     0.759240000000     0.006760000000    -0.170686   
N76      N      0.164500000000     0.758180000000     0.506470000000    -0.239926   
N77      N      0.253960000000     0.914890000000     0.002450000000    -0.169557   
N78      N      0.254960000000     0.849190000000     0.002260000000    -0.241071   
N79      N      0.256800000000     0.664910000000     0.010280000000    -0.166287   
N80      N      0.258460000000     0.599200000000     0.009460000000    -0.242006   
N81      N      0.257740000000     0.509310000000     0.914450000000    -0.166165   
N82      N      0.257950000000     0.508460000000     0.848800000000    -0.239177   
N83      N      0.255480000000     0.504510000000     0.598810000000    -0.165633   
N84      N      0.255950000000     0.504850000000     0.664470000000    -0.237838   
N85      N      0.507880000000     0.760670000000     0.849620000000    -0.164826   
N86      N      0.508200000000     0.761720000000     0.915270000000    -0.238777   
N87      N      0.504470000000     0.752460000000     0.665230000000    -0.165243   
N88      N      0.504410000000     0.752380000000     0.599490000000    -0.239337   
N89      N      0.164580000000     0.004320000000     0.756840000000    -0.169537   
N90      N      0.098850000000     0.005020000000     0.757540000000    -0.241409   
N91      N      0.414600000000     0.007760000000     0.756050000000    -0.169295   
N92      N      0.348930000000     0.008950000000     0.754980000000    -0.238161   
N93      N      0.007590000000     0.914230000000     0.755720000000    -0.167134   
N94      N      0.008490000000     0.848490000000     0.755410000000    -0.239974   
N95      N      0.505340000000     0.598510000000     0.759380000000    -0.166602   
N96      N      0.003830000000     0.664190000000     0.760980000000    -0.241944   
N97      N      0.914500000000     0.254840000000     0.007430000000    -0.166002   
N98      N      0.848820000000     0.255530000000     0.006870000000    -0.238714   
N99      N      0.598900000000     0.259240000000     0.506760000000    -0.167049   
N100     N      0.664500000000     0.258180000000     0.006470000000    -0.242316   
N101     N      0.753960000000     0.414890000000     0.502450000000    -0.166318   
N102     N      0.754960000000     0.349190000000     0.502260000000    -0.238686   
N103     N      0.756800000000     0.164910000000     0.510280000000    -0.163806   
N104     N      0.758460000000     0.099200000000     0.509470000000    -0.238205   
N105     N      0.757740000000     0.009310000000     0.414450000000    -0.170495   
N106     N      0.757950000000     0.008460000000     0.348800000000    -0.241633   
N107     N      0.755480000000     0.004510000000     0.098820000000    -0.169242   
N108     N      0.755950000000     0.004850000000     0.164470000000    -0.240344   
N109     N      0.007880000000     0.260670000000     0.349620000000    -0.167296   
N110     N      0.008200000000     0.261720000000     0.415270000000    -0.242948   
N111     N      0.004470000000     0.252460000000     0.165230000000    -0.167699   
N112     N      0.004410000000     0.252380000000     0.099490000000    -0.242846   
N113     N      0.664580000000     0.504320000000     0.256840000000    -0.167017   
N114     N      0.598850000000     0.505020000000     0.257540000000    -0.237805   
N115     N      0.914600000000     0.507760000000     0.256050000000    -0.164968   
N116     N      0.848930000000     0.508950000000     0.254980000000    -0.235701   
N117     N      0.507590000000     0.414230000000     0.255720000000    -0.164134   
N118     N      0.508490000000     0.348490000000     0.255410000000    -0.237565   
N119     N      0.005340000000     0.098510000000     0.259380000000    -0.170183   
N120     N      0.503830000000     0.164190000000     0.260980000000    -0.239552   
N121     N      0.914500000000     0.254840000000     0.507430000000    -0.162238   
N122     N      0.848820000000     0.255530000000     0.506870000000    -0.23629    
N123     N      0.598900000000     0.259240000000     0.006760000000    -0.170801   
N124     N      0.664500000000     0.258180000000     0.506470000000    -0.239937   
N125     N      0.753960000000     0.414890000000     0.002450000000    -0.170086   
N126     N      0.754960000000     0.349190000000     0.002260000000    -0.241097   
N127     N      0.756800000000     0.164910000000     0.010280000000    -0.166277   
N128     N      0.758460000000     0.099200000000     0.009460000000    -0.241892   
N129     N      0.757740000000     0.009310000000     0.914450000000    -0.169913   
N130     N      0.757950000000     0.008460000000     0.848800000000    -0.241594   
N131     N      0.755480000000     0.004510000000     0.598810000000    -0.169396   
N132     N      0.755950000000     0.004850000000     0.664470000000    -0.240333   
N133     N      0.007880000000     0.260670000000     0.849620000000    -0.16726    
N134     N      0.008200000000     0.261720000000     0.915270000000    -0.242378   
N135     N      0.004470000000     0.252460000000     0.665230000000    -0.167687   
N136     N      0.004410000000     0.252380000000     0.599490000000    -0.242912   
N137     N      0.664580000000     0.504320000000     0.756840000000    -0.166995   
N138     N      0.598850000000     0.505020000000     0.757540000000    -0.23777    
N139     N      0.914600000000     0.507760000000     0.756050000000    -0.164927   
N140     N      0.848930000000     0.508950000000     0.754980000000    -0.235693   
N141     N      0.507590000000     0.414230000000     0.755720000000    -0.164086   
N142     N      0.508490000000     0.348490000000     0.755410000000    -0.23754    
N143     N      0.005340000000     0.098510000000     0.759380000000    -0.170132   
N144     N      0.503830000000     0.164190000000     0.760980000000    -0.239537   
N145     N      0.914500000000     0.754840000000     0.007430000000    -0.165907   
N146     N      0.848820000000     0.755530000000     0.006870000000    -0.238666   
N147     N      0.598900000000     0.759240000000     0.506760000000    -0.166981   
N148     N      0.664500000000     0.758180000000     0.006470000000    -0.242301   
N149     N      0.753960000000     0.914890000000     0.502450000000    -0.165759   
N150     N      0.754960000000     0.849190000000     0.502260000000    -0.238648   
N151     N      0.756800000000     0.664910000000     0.510280000000    -0.163795   
N152     N      0.758460000000     0.599200000000     0.509470000000    -0.238275   
N153     N      0.757740000000     0.509310000000     0.414450000000    -0.166689   
N154     N      0.757950000000     0.508460000000     0.348800000000    -0.239191   
N155     N      0.755480000000     0.504510000000     0.098820000000    -0.165423   
N156     N      0.755950000000     0.504850000000     0.164470000000    -0.237858   
N157     N      0.007880000000     0.760670000000     0.349620000000    -0.167257   
N158     N      0.008200000000     0.761720000000     0.415270000000    -0.24287    
N159     N      0.004470000000     0.752460000000     0.165230000000    -0.16767    
N160     N      0.004410000000     0.752380000000     0.099490000000    -0.242822   
N161     N      0.664580000000     0.004320000000     0.256840000000    -0.169536   
N162     N      0.598850000000     0.005020000000     0.257540000000    -0.241519   
N163     N      0.914600000000     0.007760000000     0.256050000000    -0.168779   
N164     N      0.848930000000     0.008950000000     0.254980000000    -0.238149   
N165     N      0.507590000000     0.914230000000     0.255720000000    -0.163568   
N166     N      0.508490000000     0.848490000000     0.255410000000    -0.237545   
N167     N      0.005340000000     0.598510000000     0.259380000000    -0.170242   
N168     N      0.503830000000     0.664190000000     0.260980000000    -0.239542   
N169     N      0.914500000000     0.754840000000     0.507430000000    -0.16215    
N170     N      0.848820000000     0.755530000000     0.506870000000    -0.236247   
N171     N      0.598900000000     0.759240000000     0.006760000000    -0.170726   
N172     N      0.664500000000     0.758180000000     0.506470000000    -0.239926   
N173     N      0.753960000000     0.914890000000     0.002450000000    -0.169512   
N174     N      0.754960000000     0.849190000000     0.002260000000    -0.24105    
N175     N      0.756800000000     0.664910000000     0.010280000000    -0.166264   
N176     N      0.758460000000     0.599200000000     0.009460000000    -0.241961   
N177     N      0.757740000000     0.509310000000     0.914450000000    -0.166125   
N178     N      0.757950000000     0.508460000000     0.848800000000    -0.239162   
N179     N      0.755480000000     0.504510000000     0.598810000000    -0.16558    
N180     N      0.755950000000     0.504850000000     0.664470000000    -0.237847   
N181     N      0.007880000000     0.760670000000     0.849620000000    -0.167222   
N182     N      0.008200000000     0.761720000000     0.915270000000    -0.242302   
N183     N      0.004470000000     0.752460000000     0.665230000000    -0.167657   
N184     N      0.004410000000     0.752380000000     0.599490000000    -0.242887   
N185     N      0.664580000000     0.004320000000     0.756840000000    -0.169509   
N186     N      0.598850000000     0.005020000000     0.757540000000    -0.241476   
N187     N      0.914600000000     0.007760000000     0.756050000000    -0.168732   
N188     N      0.848930000000     0.008950000000     0.754980000000    -0.238136   
N189     N      0.507590000000     0.914230000000     0.755720000000    -0.16352    
N190     N      0.508490000000     0.848490000000     0.755410000000    -0.237521   
N191     N      0.005340000000     0.598510000000     0.759380000000    -0.170191   
N192     N      0.503830000000     0.664190000000     0.760980000000    -0.239526   
O1       O      0.002230000000     0.051680000000     0.232030000000    -0.546429   
O2       O      0.511620000000     0.462090000000     0.230280000000    -0.539007   
O3       O      0.462220000000     0.002460000000     0.230640000000    -0.544381   
O4       O      0.051660000000     0.511300000000     0.231590000000    -0.552362   
O5       O      0.051280000000     0.001060000000     0.283510000000    -0.516605   
O6       O      0.461720000000     0.510740000000     0.282920000000    -0.54295    
O7       O      0.001940000000     0.461180000000     0.282310000000    -0.538157   
O8       O      0.511060000000     0.050620000000     0.284200000000    -0.543497   
O9       O      0.481140000000     0.302070000000     0.258640000000    -0.557236   
O10      O      0.478550000000     0.212210000000     0.257260000000    -0.553038   
O11      O      0.480480000000     0.258010000000     0.302900000000    -0.542858   
O12      O      0.479200000000     0.257980000000     0.212930000000    -0.545919   
O13      O      0.031570000000     0.250500000000     0.212230000000    -0.537968   
O14      O      0.033440000000     0.258790000000     0.301850000000    -0.535489   
O15      O      0.031270000000     0.210710000000     0.261690000000    -0.524311   
O16      O      0.033680000000     0.300250000000     0.252480000000    -0.513846   
O17      O      0.300860000000     0.034250000000     0.258360000000    -0.5457     
O18      O      0.211080000000     0.031650000000     0.253880000000    -0.551798   
O19      O      0.253420000000     0.033720000000     0.301090000000    -0.553247   
O20      O      0.256810000000     0.032230000000     0.211200000000    -0.550523   
O21      O      0.255790000000     0.479240000000     0.212230000000    -0.517617   
O22      O      0.261170000000     0.481340000000     0.302000000000    -0.523887   
O23      O      0.212760000000     0.479120000000     0.260330000000    -0.543944   
O24      O      0.302450000000     0.481510000000     0.253810000000    -0.505739   
O25      O      0.282080000000     0.501410000000     0.051710000000    -0.534226   
O26      O      0.283540000000     0.009260000000     0.462120000000    -0.545789   
O27      O      0.283940000000     0.051020000000     0.011550000000    -0.514244   
O28      O      0.281550000000     0.461380000000     0.502260000000    -0.544873   
O29      O      0.228880000000     0.462930000000     0.007270000000    -0.547027   
O30      O      0.231410000000     0.052730000000     0.505320000000    -0.559594   
O31      O      0.230590000000     0.508140000000     0.461350000000    -0.548277   
O32      O      0.229740000000     0.009230000000     0.051330000000    -0.5478     
O33      O      0.052450000000     0.231850000000     0.005390000000    -0.55252    
O34      O      0.462600000000     0.229510000000     0.504660000000    -0.54032    
O35      O      0.008830000000     0.233070000000     0.460940000000    -0.556651   
O36      O      0.507870000000     0.228240000000     0.050830000000    -0.551596   
O37      O      0.004650000000     0.281040000000     0.053750000000    -0.527917   
O38      O      0.505470000000     0.285880000000     0.463910000000    -0.523201   
O39      O      0.460990000000     0.282250000000     0.009280000000    -0.530725   
O40      O      0.050880000000     0.284610000000     0.510030000000    -0.545787   
O41      O      0.259330000000     0.213470000000     0.034980000000    -0.536933   
O42      O      0.253790000000     0.303300000000     0.030750000000    -0.553984   
O43      O      0.211660000000     0.257320000000     0.033090000000    -0.552804   
O44      O      0.301500000000     0.261120000000     0.032710000000    -0.549043   
O45      O      0.301530000000     0.252530000000     0.480460000000    -0.5128     
O46      O      0.211770000000     0.257370000000     0.480070000000    -0.526967   
O47      O      0.259360000000     0.300620000000     0.478130000000    -0.519843   
O48      O      0.253850000000     0.210990000000     0.482360000000    -0.534731   
O49      O      0.002230000000     0.051680000000     0.732030000000    -0.54634    
O50      O      0.511620000000     0.462090000000     0.730280000000    -0.538924   
O51      O      0.462220000000     0.002460000000     0.730640000000    -0.544292   
O52      O      0.051660000000     0.511300000000     0.731590000000    -0.55228    
O53      O      0.051280000000     0.001060000000     0.783510000000    -0.516449   
O54      O      0.461720000000     0.510740000000     0.782920000000    -0.542797   
O55      O      0.001940000000     0.461180000000     0.782310000000    -0.538003   
O56      O      0.511060000000     0.050620000000     0.784200000000    -0.543345   
O57      O      0.481140000000     0.302070000000     0.758640000000    -0.557201   
O58      O      0.478550000000     0.212210000000     0.757260000000    -0.552986   
O59      O      0.480480000000     0.258010000000     0.802900000000    -0.542605   
O60      O      0.479200000000     0.257980000000     0.712930000000    -0.546062   
O61      O      0.031570000000     0.250500000000     0.712230000000    -0.537954   
O62      O      0.033440000000     0.258790000000     0.801850000000    -0.535389   
O63      O      0.031270000000     0.210710000000     0.761690000000    -0.524276   
O64      O      0.033680000000     0.300250000000     0.752470000000    -0.51373    
O65      O      0.300860000000     0.034250000000     0.758350000000    -0.54569    
O66      O      0.211080000000     0.031650000000     0.753880000000    -0.55178    
O67      O      0.253420000000     0.033720000000     0.801090000000    -0.553181   
O68      O      0.256810000000     0.032230000000     0.711200000000    -0.550497   
O69      O      0.255790000000     0.479240000000     0.712230000000    -0.517609   
O70      O      0.261170000000     0.481340000000     0.802000000000    -0.523789   
O71      O      0.212760000000     0.479120000000     0.760330000000    -0.543875   
O72      O      0.302450000000     0.481510000000     0.753810000000    -0.505714   
O73      O      0.282080000000     0.501410000000     0.551710000000    -0.535539   
O74      O      0.283540000000     0.009260000000     0.962120000000    -0.53962    
O75      O      0.283940000000     0.051020000000     0.511550000000    -0.513975   
O76      O      0.281550000000     0.461380000000     0.002260000000    -0.546193   
O77      O      0.228880000000     0.462930000000     0.507270000000    -0.546792   
O78      O      0.231410000000     0.052730000000     0.005320000000    -0.56091    
O79      O      0.230590000000     0.508140000000     0.961350000000    -0.542113   
O80      O      0.229740000000     0.009230000000     0.551330000000    -0.549105   
O81      O      0.052450000000     0.231850000000     0.505390000000    -0.551308   
O82      O      0.462600000000     0.229510000000     0.004660000000    -0.541541   
O83      O      0.008830000000     0.233070000000     0.960940000000    -0.550572   
O84      O      0.507870000000     0.228240000000     0.550830000000    -0.552796   
O85      O      0.004650000000     0.281040000000     0.553750000000    -0.529283   
O86      O      0.505470000000     0.285880000000     0.963910000000    -0.516967   
O87      O      0.460990000000     0.282250000000     0.509280000000    -0.530369   
O88      O      0.050880000000     0.284610000000     0.010030000000    -0.546101   
O89      O      0.259330000000     0.213470000000     0.534980000000    -0.539401   
O90      O      0.253790000000     0.303300000000     0.530750000000    -0.55667    
O91      O      0.211660000000     0.257320000000     0.533090000000    -0.55537    
O92      O      0.301500000000     0.261120000000     0.532710000000    -0.551607   
O93      O      0.301530000000     0.252530000000     0.980460000000    -0.506352   
O94      O      0.211770000000     0.257370000000     0.980070000000    -0.520458   
O95      O      0.259360000000     0.300620000000     0.978130000000    -0.513265   
O96      O      0.253850000000     0.210990000000     0.982360000000    -0.528391   
O97      O      0.002230000000     0.551680000000     0.232030000000    -0.547694   
O98      O      0.511620000000     0.962090000000     0.230280000000    -0.532787   
O99      O      0.462220000000     0.502460000000     0.230640000000    -0.542897   
O100     O      0.051660000000     0.011300000000     0.231590000000    -0.552499   
O101     O      0.051280000000     0.501060000000     0.283510000000    -0.515158   
O102     O      0.461720000000     0.010740000000     0.282920000000    -0.543167   
O103     O      0.001940000000     0.961180000000     0.282310000000    -0.531945   
O104     O      0.511060000000     0.550620000000     0.284200000000    -0.54478    
O105     O      0.481140000000     0.802070000000     0.258640000000    -0.557156   
O106     O      0.478550000000     0.712210000000     0.257260000000    -0.553012   
O107     O      0.480480000000     0.758010000000     0.302900000000    -0.542823   
O108     O      0.479200000000     0.757980000000     0.212930000000    -0.545868   
O109     O      0.031570000000     0.750490000000     0.212230000000    -0.53789    
O110     O      0.033440000000     0.758800000000     0.301850000000    -0.535417   
O111     O      0.031270000000     0.710710000000     0.261690000000    -0.5243     
O112     O      0.033680000000     0.800250000000     0.252480000000    -0.513758   
O113     O      0.300860000000     0.534250000000     0.258360000000    -0.548187   
O114     O      0.211080000000     0.531650000000     0.253880000000    -0.55453    
O115     O      0.253420000000     0.533720000000     0.301090000000    -0.555864   
O116     O      0.256810000000     0.532230000000     0.211200000000    -0.553098   
O117     O      0.255790000000     0.979240000000     0.212230000000    -0.511076   
O118     O      0.261170000000     0.981340000000     0.302000000000    -0.517329   
O119     O      0.212760000000     0.979120000000     0.260330000000    -0.537268   
O120     O      0.302450000000     0.981510000000     0.253810000000    -0.499371   
O121     O      0.282080000000     0.001410000000     0.051710000000    -0.535599   
O122     O      0.283540000000     0.509260000000     0.462120000000    -0.544695   
O123     O      0.283940000000     0.551020000000     0.011550000000    -0.515453   
O124     O      0.281550000000     0.961380000000     0.502260000000    -0.538749   
O125     O      0.228880000000     0.962930000000     0.007270000000    -0.540728   
O126     O      0.231410000000     0.552730000000     0.505320000000    -0.56097    
O127     O      0.230590000000     0.008140000000     0.461350000000    -0.548731   
O128     O      0.229740000000     0.509230000000     0.051330000000    -0.547554   
O129     O      0.052450000000     0.731850000000     0.005390000000    -0.552434   
O130     O      0.462600000000     0.729510000000     0.504660000000    -0.540141   
O131     O      0.008830000000     0.733070000000     0.460940000000    -0.556562   
O132     O      0.507870000000     0.728240000000     0.050830000000    -0.551497   
O133     O      0.004650000000     0.781040000000     0.053750000000    -0.527776   
O134     O      0.505470000000     0.785880000000     0.463910000000    -0.523008   
O135     O      0.460990000000     0.782260000000     0.009280000000    -0.530384   
O136     O      0.050880000000     0.784610000000     0.510030000000    -0.545587   
O137     O      0.259330000000     0.713470000000     0.034980000000    -0.537093   
O138     O      0.253790000000     0.803300000000     0.030750000000    -0.553705   
O139     O      0.211660000000     0.757330000000     0.033090000000    -0.552787   
O140     O      0.301500000000     0.761120000000     0.032710000000    -0.548983   
O141     O      0.301530000000     0.752530000000     0.480460000000    -0.512767   
O142     O      0.211770000000     0.757370000000     0.480070000000    -0.526909   
O143     O      0.259360000000     0.800620000000     0.478130000000    -0.519726   
O144     O      0.253850000000     0.710990000000     0.482360000000    -0.534737   
O145     O      0.002230000000     0.551680000000     0.732030000000    -0.547603   
O146     O      0.511620000000     0.962090000000     0.730280000000    -0.532714   
O147     O      0.462220000000     0.502460000000     0.730640000000    -0.542809   
O148     O      0.051660000000     0.011300000000     0.731590000000    -0.552417   
O149     O      0.051280000000     0.501060000000     0.783510000000    -0.515005   
O150     O      0.461720000000     0.010740000000     0.782920000000    -0.543014   
O151     O      0.001940000000     0.961180000000     0.782310000000    -0.531808   
O152     O      0.511060000000     0.550620000000     0.784200000000    -0.544625   
O153     O      0.481140000000     0.802070000000     0.758640000000    -0.557121   
O154     O      0.478550000000     0.712210000000     0.757260000000    -0.55296    
O155     O      0.480480000000     0.758010000000     0.802900000000    -0.54257    
O156     O      0.479200000000     0.757980000000     0.712930000000    -0.546011   
O157     O      0.031570000000     0.750490000000     0.712230000000    -0.537876   
O158     O      0.033440000000     0.758800000000     0.801850000000    -0.535318   
O159     O      0.031270000000     0.710710000000     0.761690000000    -0.524265   
O160     O      0.033680000000     0.800250000000     0.752470000000    -0.513641   
O161     O      0.300860000000     0.534250000000     0.758350000000    -0.548172   
O162     O      0.211080000000     0.531650000000     0.753880000000    -0.554507   
O163     O      0.253420000000     0.533720000000     0.801090000000    -0.555791   
O164     O      0.256810000000     0.532230000000     0.711200000000    -0.553068   
O165     O      0.255790000000     0.979240000000     0.712230000000    -0.511077   
O166     O      0.261170000000     0.981340000000     0.802000000000    -0.517251   
O167     O      0.212760000000     0.979120000000     0.760330000000    -0.537214   
O168     O      0.302450000000     0.981510000000     0.753810000000    -0.49936    
O169     O      0.282080000000     0.001410000000     0.551710000000    -0.536911   
O170     O      0.283540000000     0.509260000000     0.962120000000    -0.538527   
O171     O      0.283940000000     0.551020000000     0.511550000000    -0.515186   
O172     O      0.281550000000     0.961380000000     0.002260000000    -0.540067   
O173     O      0.228880000000     0.962930000000     0.507270000000    -0.540491   
O174     O      0.231410000000     0.552730000000     0.005320000000    -0.562284   
O175     O      0.230590000000     0.008140000000     0.961350000000    -0.542569   
O176     O      0.229740000000     0.509230000000     0.551330000000    -0.54886    
O177     O      0.052450000000     0.731850000000     0.505390000000    -0.551224   
O178     O      0.462600000000     0.729510000000     0.004660000000    -0.541362   
O179     O      0.008830000000     0.733070000000     0.960940000000    -0.550494   
O180     O      0.507870000000     0.728240000000     0.550830000000    -0.552695   
O181     O      0.004650000000     0.781040000000     0.553750000000    -0.529139   
O182     O      0.505470000000     0.785880000000     0.963910000000    -0.516792   
O183     O      0.460990000000     0.782260000000     0.509280000000    -0.530027   
O184     O      0.050880000000     0.784610000000     0.010030000000    -0.545901   
O185     O      0.259330000000     0.713470000000     0.534980000000    -0.539559   
O186     O      0.253790000000     0.803300000000     0.530750000000    -0.556384   
O187     O      0.211660000000     0.757330000000     0.533090000000    -0.555348   
O188     O      0.301500000000     0.761120000000     0.532710000000    -0.551542   
O189     O      0.301530000000     0.752530000000     0.980460000000    -0.506332   
O190     O      0.211770000000     0.757370000000     0.980070000000    -0.520416   
O191     O      0.259360000000     0.800620000000     0.978130000000    -0.513168   
O192     O      0.253850000000     0.710990000000     0.982360000000    -0.528406   
O193     O      0.502230000000     0.051680000000     0.232030000000    -0.545082   
O194     O      0.011620000000     0.462090000000     0.230280000000    -0.5392     
O195     O      0.962220000000     0.002460000000     0.230640000000    -0.538413   
O196     O      0.551660000000     0.511300000000     0.231590000000    -0.553599   
O197     O      0.551280000000     0.001060000000     0.283510000000    -0.517825   
O198     O      0.961720000000     0.510740000000     0.282920000000    -0.537022   
O199     O      0.501930000000     0.461180000000     0.282310000000    -0.536677   
O200     O      0.011060000000     0.050620000000     0.284200000000    -0.543637   
O201     O      0.981150000000     0.302070000000     0.258640000000    -0.5513     
O202     O      0.978550000000     0.212210000000     0.257260000000    -0.546663   
O203     O      0.980480000000     0.258010000000     0.302900000000    -0.536568   
O204     O      0.979200000000     0.257980000000     0.212930000000    -0.539675   
O205     O      0.531570000000     0.250500000000     0.212230000000    -0.540446   
O206     O      0.533440000000     0.258790000000     0.301850000000    -0.537963   
O207     O      0.531270000000     0.210710000000     0.261690000000    -0.526903   
O208     O      0.533680000000     0.300250000000     0.252480000000    -0.516174   
O209     O      0.800870000000     0.034250000000     0.258360000000    -0.545485   
O210     O      0.711080000000     0.031650000000     0.253880000000    -0.551738   
O211     O      0.753420000000     0.033720000000     0.301090000000    -0.553172   
O212     O      0.756810000000     0.032230000000     0.211200000000    -0.550439   
O213     O      0.755790000000     0.479240000000     0.212230000000    -0.517591   
O214     O      0.761170000000     0.481340000000     0.302000000000    -0.523858   
O215     O      0.712760000000     0.479120000000     0.260330000000    -0.543922   
O216     O      0.802450000000     0.481510000000     0.253810000000    -0.50571    
O217     O      0.782080000000     0.501410000000     0.051710000000    -0.534081   
O218     O      0.783540000000     0.009260000000     0.462120000000    -0.545629   
O219     O      0.783940000000     0.051020000000     0.011550000000    -0.514076   
O220     O      0.781550000000     0.461380000000     0.502260000000    -0.544744   
O221     O      0.728880000000     0.462930000000     0.007270000000    -0.546935   
O222     O      0.731410000000     0.052730000000     0.505320000000    -0.559522   
O223     O      0.730590000000     0.508140000000     0.461350000000    -0.548193   
O224     O      0.729740000000     0.009230000000     0.051330000000    -0.547718   
O225     O      0.552450000000     0.231850000000     0.005390000000    -0.553829   
O226     O      0.962600000000     0.229510000000     0.504660000000    -0.534314   
O227     O      0.508830000000     0.233070000000     0.460940000000    -0.556305   
O228     O      0.007870000000     0.228240000000     0.050830000000    -0.551956   
O229     O      0.504650000000     0.281040000000     0.053750000000    -0.526781   
O230     O      0.005470000000     0.285880000000     0.463910000000    -0.524334   
O231     O      0.960990000000     0.282250000000     0.009280000000    -0.524881   
O232     O      0.550880000000     0.284610000000     0.510030000000    -0.546978   
O233     O      0.759330000000     0.213470000000     0.034980000000    -0.536897   
O234     O      0.753790000000     0.303300000000     0.030750000000    -0.553958   
O235     O      0.711660000000     0.257320000000     0.033090000000    -0.552823   
O236     O      0.801500000000     0.261120000000     0.032710000000    -0.548928   
O237     O      0.801530000000     0.252530000000     0.480460000000    -0.512635   
O238     O      0.711760000000     0.257370000000     0.480070000000    -0.5268     
O239     O      0.759360000000     0.300620000000     0.478130000000    -0.519765   
O240     O      0.753850000000     0.210990000000     0.482360000000    -0.534653   
O241     O      0.502230000000     0.051680000000     0.732030000000    -0.544994   
O242     O      0.011620000000     0.462090000000     0.730280000000    -0.539117   
O243     O      0.962220000000     0.002460000000     0.730640000000    -0.538335   
O244     O      0.551660000000     0.511300000000     0.731590000000    -0.553514   
O245     O      0.551280000000     0.001060000000     0.783510000000    -0.517667   
O246     O      0.961720000000     0.510740000000     0.782920000000    -0.536886   
O247     O      0.501930000000     0.461180000000     0.782310000000    -0.536525   
O248     O      0.011060000000     0.050620000000     0.784200000000    -0.543485   
O249     O      0.981150000000     0.302070000000     0.758640000000    -0.551278   
O250     O      0.978550000000     0.212210000000     0.757260000000    -0.546626   
O251     O      0.980480000000     0.258010000000     0.802900000000    -0.536334   
O252     O      0.979200000000     0.257980000000     0.712930000000    -0.539828   
O253     O      0.531570000000     0.250500000000     0.712230000000    -0.540427   
O254     O      0.533440000000     0.258790000000     0.801850000000    -0.537858   
O255     O      0.531270000000     0.210710000000     0.761690000000    -0.526862   
O256     O      0.533680000000     0.300250000000     0.752470000000    -0.516052   
O257     O      0.800870000000     0.034250000000     0.758350000000    -0.545475   
O258     O      0.711080000000     0.031650000000     0.753880000000    -0.55172    
O259     O      0.753420000000     0.033720000000     0.801090000000    -0.553106   
O260     O      0.756810000000     0.032230000000     0.711200000000    -0.550413   
O261     O      0.755790000000     0.479240000000     0.712230000000    -0.517583   
O262     O      0.761170000000     0.481340000000     0.802000000000    -0.52376    
O263     O      0.712760000000     0.479120000000     0.760330000000    -0.543853   
O264     O      0.802450000000     0.481510000000     0.753810000000    -0.505685   
O265     O      0.782080000000     0.501410000000     0.551710000000    -0.535391   
O266     O      0.783540000000     0.009260000000     0.962120000000    -0.539477   
O267     O      0.783940000000     0.051020000000     0.511550000000    -0.513807   
O268     O      0.781550000000     0.461380000000     0.002260000000    -0.546061   
O269     O      0.728880000000     0.462930000000     0.507270000000    -0.5467     
O270     O      0.731410000000     0.052730000000     0.005320000000    -0.560837   
O271     O      0.730590000000     0.508140000000     0.961350000000    -0.54204    
O272     O      0.729740000000     0.009230000000     0.551330000000    -0.549022   
O273     O      0.552450000000     0.231850000000     0.505390000000    -0.55262    
O274     O      0.962600000000     0.229510000000     0.004660000000    -0.535533   
O275     O      0.508830000000     0.233070000000     0.960940000000    -0.550224   
O276     O      0.007870000000     0.228240000000     0.550830000000    -0.553154   
O277     O      0.504650000000     0.281040000000     0.553750000000    -0.528149   
O278     O      0.005470000000     0.285880000000     0.963910000000    -0.518099   
O279     O      0.960990000000     0.282250000000     0.509280000000    -0.524524   
O280     O      0.550880000000     0.284610000000     0.010030000000    -0.547291   
O281     O      0.759330000000     0.213470000000     0.534980000000    -0.539361   
O282     O      0.753790000000     0.303300000000     0.530750000000    -0.556638   
O283     O      0.711660000000     0.257320000000     0.533090000000    -0.555385   
O284     O      0.801500000000     0.261120000000     0.532710000000    -0.551486   
O285     O      0.801530000000     0.252530000000     0.980460000000    -0.506207   
O286     O      0.711760000000     0.257370000000     0.980070000000    -0.520299   
O287     O      0.759360000000     0.300620000000     0.978130000000    -0.513202   
O288     O      0.753850000000     0.210990000000     0.982360000000    -0.528328   
O289     O      0.502230000000     0.551680000000     0.232030000000    -0.546348   
O290     O      0.011620000000     0.962090000000     0.230280000000    -0.532982   
O291     O      0.962220000000     0.502460000000     0.230640000000    -0.536931   
O292     O      0.551660000000     0.011300000000     0.231590000000    -0.553734   
O293     O      0.551280000000     0.501060000000     0.283510000000    -0.516379   
O294     O      0.961720000000     0.010740000000     0.282920000000    -0.537239   
O295     O      0.501930000000     0.961180000000     0.282310000000    -0.530467   
O296     O      0.011060000000     0.550620000000     0.284200000000    -0.544918   
O297     O      0.981150000000     0.802070000000     0.258640000000    -0.55124    
O298     O      0.978550000000     0.712210000000     0.257260000000    -0.546647   
O299     O      0.980480000000     0.758010000000     0.302900000000    -0.536547   
O300     O      0.979200000000     0.757980000000     0.212930000000    -0.539639   
O301     O      0.531570000000     0.750490000000     0.212230000000    -0.540362   
O302     O      0.533440000000     0.758800000000     0.301850000000    -0.537886   
O303     O      0.531270000000     0.710710000000     0.261690000000    -0.526887   
O304     O      0.533680000000     0.800250000000     0.252480000000    -0.51608    
O305     O      0.800870000000     0.534250000000     0.258360000000    -0.547966   
O306     O      0.711080000000     0.531650000000     0.253880000000    -0.554465   
O307     O      0.753420000000     0.533720000000     0.301090000000    -0.555782   
O308     O      0.756810000000     0.532230000000     0.211200000000    -0.553009   
O309     O      0.755790000000     0.979240000000     0.212230000000    -0.511064   
O310     O      0.761170000000     0.981340000000     0.302000000000    -0.517314   
O311     O      0.712760000000     0.979120000000     0.260330000000    -0.537256   
O312     O      0.802450000000     0.981510000000     0.253810000000    -0.499361   
O313     O      0.782080000000     0.001410000000     0.051710000000    -0.535452   
O314     O      0.783540000000     0.509260000000     0.462120000000    -0.544537   
O315     O      0.783940000000     0.551020000000     0.011550000000    -0.515283   
O316     O      0.781550000000     0.961380000000     0.502260000000    -0.538637   
O317     O      0.728880000000     0.962930000000     0.007270000000    -0.540647   
O318     O      0.731410000000     0.552730000000     0.505320000000    -0.560896   
O319     O      0.730590000000     0.008140000000     0.461350000000    -0.548648   
O320     O      0.729740000000     0.509230000000     0.051330000000    -0.547472   
O321     O      0.552450000000     0.731850000000     0.005390000000    -0.553741   
O322     O      0.962600000000     0.729510000000     0.504660000000    -0.534148   
O323     O      0.508830000000     0.733070000000     0.460940000000    -0.556216   
O324     O      0.007870000000     0.728240000000     0.050830000000    -0.551857   
O325     O      0.504650000000     0.781040000000     0.053750000000    -0.526643   
O326     O      0.005470000000     0.785880000000     0.463910000000    -0.52414    
O327     O      0.960990000000     0.782260000000     0.009280000000    -0.524557   
O328     O      0.550880000000     0.784610000000     0.510030000000    -0.546776   
O329     O      0.759330000000     0.713470000000     0.034980000000    -0.537057   
O330     O      0.753790000000     0.803300000000     0.030750000000    -0.553679   
O331     O      0.711660000000     0.757330000000     0.033090000000    -0.552806   
O332     O      0.801500000000     0.761120000000     0.032710000000    -0.548868   
O333     O      0.801530000000     0.752530000000     0.480460000000    -0.512602   
O334     O      0.711760000000     0.757370000000     0.480070000000    -0.526743   
O335     O      0.759360000000     0.800620000000     0.478130000000    -0.519649   
O336     O      0.753850000000     0.710990000000     0.482360000000    -0.534659   
O337     O      0.502230000000     0.551680000000     0.732030000000    -0.546258   
O338     O      0.011620000000     0.962090000000     0.730280000000    -0.532909   
O339     O      0.962220000000     0.502460000000     0.730640000000    -0.536855   
O340     O      0.551660000000     0.011300000000     0.731590000000    -0.553649   
O341     O      0.551280000000     0.501060000000     0.783510000000    -0.516223   
O342     O      0.961720000000     0.010740000000     0.782920000000    -0.537103   
O343     O      0.501930000000     0.961180000000     0.782310000000    -0.530332   
O344     O      0.011060000000     0.550620000000     0.784200000000    -0.544764   
O345     O      0.981150000000     0.802070000000     0.758640000000    -0.551218   
O346     O      0.978550000000     0.712210000000     0.757260000000    -0.54661    
O347     O      0.980480000000     0.758010000000     0.802900000000    -0.536314   
O348     O      0.979200000000     0.757980000000     0.712930000000    -0.539792   
O349     O      0.531570000000     0.750490000000     0.712230000000    -0.540344   
O350     O      0.533440000000     0.758800000000     0.801850000000    -0.537781   
O351     O      0.531270000000     0.710710000000     0.761690000000    -0.526846   
O352     O      0.533680000000     0.800250000000     0.752470000000    -0.515958   
O353     O      0.800870000000     0.534250000000     0.758350000000    -0.547952   
O354     O      0.711080000000     0.531650000000     0.753880000000    -0.554441   
O355     O      0.753420000000     0.533720000000     0.801090000000    -0.55571    
O356     O      0.756810000000     0.532230000000     0.711200000000    -0.552979   
O357     O      0.755790000000     0.979240000000     0.712230000000    -0.511065   
O358     O      0.761170000000     0.981340000000     0.802000000000    -0.517237   
O359     O      0.712760000000     0.979120000000     0.760330000000    -0.537202   
O360     O      0.802450000000     0.981510000000     0.753810000000    -0.499351   
O361     O      0.782080000000     0.001410000000     0.551710000000    -0.53676    
O362     O      0.783540000000     0.509260000000     0.962120000000    -0.538387   
O363     O      0.783940000000     0.551020000000     0.511550000000    -0.515016   
O364     O      0.781550000000     0.961380000000     0.002260000000    -0.539953   
O365     O      0.728880000000     0.962930000000     0.507270000000    -0.540409   
O366     O      0.731410000000     0.552730000000     0.005320000000    -0.562209   
O367     O      0.730590000000     0.008140000000     0.961350000000    -0.542497   
O368     O      0.729740000000     0.509230000000     0.551330000000    -0.548776   
O369     O      0.552450000000     0.731850000000     0.505390000000    -0.552533   
O370     O      0.962600000000     0.729510000000     0.004660000000    -0.535366   
O371     O      0.508830000000     0.733070000000     0.960940000000    -0.550146   
O372     O      0.007870000000     0.728240000000     0.550830000000    -0.553054   
O373     O      0.504650000000     0.781040000000     0.553750000000    -0.528008   
O374     O      0.005470000000     0.785880000000     0.963910000000    -0.517922   
O375     O      0.960990000000     0.782260000000     0.509280000000    -0.5242     
O376     O      0.550880000000     0.784610000000     0.010030000000    -0.547089   
O377     O      0.759330000000     0.713470000000     0.534980000000    -0.539518   
O378     O      0.753790000000     0.803300000000     0.530750000000    -0.556353   
O379     O      0.711660000000     0.757330000000     0.533090000000    -0.555363   
O380     O      0.801500000000     0.761120000000     0.532710000000    -0.551422   
O381     O      0.801530000000     0.752530000000     0.980460000000    -0.506187   
O382     O      0.711760000000     0.757370000000     0.980070000000    -0.520256   
O383     O      0.759360000000     0.800620000000     0.978130000000    -0.513105   
O384     O      0.753850000000     0.710990000000     0.982360000000    -0.528343   
V1       V      0.506960000000     0.006930000000     0.228810000000     1.39439    
V2       V      0.506480000000     0.505850000000     0.285560000000     1.41304    
V3       V      0.477670000000     0.257470000000     0.257950000000     1.42049    
V4       V      0.034670000000     0.255140000000     0.256980000000     1.41536    
V5       V      0.255630000000     0.035150000000     0.256120000000     1.40132    
V6       V      0.257940000000     0.478120000000     0.257180000000     1.44808    
V7       V      0.284970000000     0.005860000000     0.006970000000     1.40536    
V8       V      0.227980000000     0.008170000000     0.506310000000     1.40261    
V9       V      0.007850000000     0.228530000000     0.505500000000     1.40688    
V10      V      0.505610000000     0.285580000000     0.509210000000     1.43799    
V11      V      0.256600000000     0.258770000000     0.035080000000     1.39762    
V12      V      0.256660000000     0.255430000000     0.478080000000     1.45188    
V13      V      0.506960000000     0.006930000000     0.728810000000     1.39448    
V14      V      0.506480000000     0.505850000000     0.785560000000     1.41367    
V15      V      0.477670000000     0.257470000000     0.757940000000     1.42056    
V16      V      0.034670000000     0.255140000000     0.756980000000     1.41537    
V17      V      0.255630000000     0.035150000000     0.756120000000     1.40143    
V18      V      0.257940000000     0.478120000000     0.757180000000     1.44813    
V19      V      0.284970000000     0.005860000000     0.506970000000     1.41345    
V20      V      0.227980000000     0.008170000000     0.006310000000     1.3945     
V21      V      0.007850000000     0.228530000000     0.005500000000     1.39847    
V22      V      0.505610000000     0.285580000000     0.009210000000     1.43015    
V23      V      0.256600000000     0.258770000000     0.535080000000     1.40785    
V24      V      0.256660000000     0.255430000000     0.978080000000     1.45689    
V25      V      0.506960000000     0.506930000000     0.228810000000     1.40249    
V26      V      0.506480000000     0.005850000000     0.285560000000     1.40479    
V27      V      0.477670000000     0.757470000000     0.257950000000     1.42055    
V28      V      0.034670000000     0.755140000000     0.256980000000     1.41538    
V29      V      0.255630000000     0.535150000000     0.256120000000     1.41169    
V30      V      0.257940000000     0.978120000000     0.257180000000     1.45316    
V31      V      0.284970000000     0.505860000000     0.006970000000     1.41376    
V32      V      0.227980000000     0.508170000000     0.506310000000     1.41058    
V33      V      0.007850000000     0.728530000000     0.505500000000     1.40695    
V34      V      0.505610000000     0.785580000000     0.509210000000     1.43855    
V35      V      0.256600000000     0.758760000000     0.035080000000     1.39768    
V36      V      0.256660000000     0.755430000000     0.478080000000     1.45192    
V37      V      0.506960000000     0.506930000000     0.728810000000     1.40258    
V38      V      0.506480000000     0.005850000000     0.785560000000     1.40544    
V39      V      0.477670000000     0.757470000000     0.757940000000     1.42062    
V40      V      0.034670000000     0.755140000000     0.756980000000     1.41539    
V41      V      0.255630000000     0.535150000000     0.756120000000     1.41177    
V42      V      0.257940000000     0.978120000000     0.757180000000     1.4532     
V43      V      0.284970000000     0.505860000000     0.506970000000     1.42187    
V44      V      0.227980000000     0.508170000000     0.006310000000     1.40245    
V45      V      0.007850000000     0.728530000000     0.005500000000     1.39854    
V46      V      0.505610000000     0.785580000000     0.009210000000     1.43072    
V47      V      0.256600000000     0.758760000000     0.535080000000     1.40789    
V48      V      0.256660000000     0.755430000000     0.978080000000     1.45692    
V49      V      0.006960000000     0.006930000000     0.228810000000     1.38662    
V50      V      0.006480000000     0.505850000000     0.285560000000     1.40531    
V51      V      0.977670000000     0.257470000000     0.257950000000     1.42543    
V52      V      0.534670000000     0.255140000000     0.256980000000     1.4252     
V53      V      0.755630000000     0.035150000000     0.256120000000     1.4011     
V54      V      0.757940000000     0.478120000000     0.257180000000     1.44819    
V55      V      0.784970000000     0.005860000000     0.006970000000     1.40599    
V56      V      0.727980000000     0.008170000000     0.506310000000     1.4027     
V57      V      0.507850000000     0.228530000000     0.505500000000     1.4145     
V58      V      0.005610000000     0.285580000000     0.509210000000     1.42987    
V59      V      0.756600000000     0.258770000000     0.035080000000     1.39775    
V60      V      0.756660000000     0.255430000000     0.478080000000     1.45161    
V61      V      0.006960000000     0.006930000000     0.728810000000     1.38672    
V62      V      0.006480000000     0.505850000000     0.785560000000     1.40595    
V63      V      0.977670000000     0.257470000000     0.757940000000     1.42549    
V64      V      0.534670000000     0.255140000000     0.756980000000     1.42519    
V65      V      0.755630000000     0.035150000000     0.756120000000     1.40121    
V66      V      0.757940000000     0.478120000000     0.757180000000     1.44824    
V67      V      0.784970000000     0.005860000000     0.506970000000     1.41406    
V68      V      0.727980000000     0.008170000000     0.006310000000     1.3946     
V69      V      0.507850000000     0.228530000000     0.005500000000     1.40607    
V70      V      0.005610000000     0.285580000000     0.009210000000     1.42205    
V71      V      0.756600000000     0.258770000000     0.535080000000     1.40796    
V72      V      0.756660000000     0.255430000000     0.978080000000     1.4566     
V73      V      0.006960000000     0.506930000000     0.228810000000     1.3947     
V74      V      0.006480000000     0.005850000000     0.285560000000     1.39708    
V75      V      0.977670000000     0.757470000000     0.257950000000     1.42548    
V76      V      0.534670000000     0.755140000000     0.256980000000     1.42519    
V77      V      0.755630000000     0.535150000000     0.256120000000     1.41144    
V78      V      0.757940000000     0.978120000000     0.257180000000     1.45325    
V79      V      0.784970000000     0.505860000000     0.006970000000     1.41437    
V80      V      0.727980000000     0.508170000000     0.506310000000     1.41066    
V81      V      0.507850000000     0.728530000000     0.505500000000     1.41456    
V82      V      0.005610000000     0.785580000000     0.509210000000     1.43045    
V83      V      0.756600000000     0.758760000000     0.035080000000     1.39781    
V84      V      0.756660000000     0.755430000000     0.478080000000     1.45165    
V85      V      0.006960000000     0.506930000000     0.728810000000     1.39479    
V86      V      0.006480000000     0.005850000000     0.785560000000     1.39774    
V87      V      0.977670000000     0.757470000000     0.757940000000     1.42554    
V88      V      0.534670000000     0.755140000000     0.756980000000     1.42518    
V89      V      0.755630000000     0.535150000000     0.756120000000     1.41153    
V90      V      0.757940000000     0.978120000000     0.757180000000     1.45329    
V91      V      0.784970000000     0.505860000000     0.506970000000     1.42247    
V92      V      0.727980000000     0.508170000000     0.006310000000     1.40254    
V93      V      0.507850000000     0.728530000000     0.005500000000     1.40614    
V94      V      0.005610000000     0.785580000000     0.009210000000     1.42264    
V95      V      0.756600000000     0.758760000000     0.535080000000     1.408      
V96      V      0.756660000000     0.755430000000     0.978080000000     1.45663    


