data_structure

_audit_creation_method RASPA-1.0
_audit_creation_date 2023-5-23
_audit_author_name 'Poobodin Mano'

_cell_length_a    31.6969
_cell_length_b    31.7029
_cell_length_c    31.7181
_cell_angle_alpha 90
_cell_angle_beta  90
_cell_angle_gamma 90
_cell_volume      31873

_symmetry_cell_setting          triclinic
_symmetry_space_group_name_Hall 'P 1'
_symmetry_space_group_name_H-M  'P 1'
_symmetry_Int_Tables_number     1

_symmetry_equiv_pos_as_xyz 'x,y,z'

loop_
_atom_site_label
_atom_site_type_symbol
_atom_site_fract_x
_atom_site_fract_y
_atom_site_fract_z
_atom_site_charge
C1       C      0.768090000000     0.354920000000     0.011060000000     0.473412   
C2       C      0.608350000000     0.353660000000     0.016400000000     0.472533   
C3       C      0.687410000000     0.434630000000     0.011770000000     0.471841   
C4       C      0.688300000000     0.274830000000     0.015890000000     0.473328   
C5       C      0.274130000000     0.339800000000     0.012960000000     0.473956   
C6       C      0.433960000000     0.344810000000     0.017080000000     0.473382   
C7       C      0.351570000000     0.421990000000     0.016170000000     0.473062   
C8       C      0.356390000000     0.262160000000     0.014020000000     0.474542   
C9       C      0.675750000000     0.769050000000     0.013590000000     0.47487    
C10      C      0.680560000000     0.609220000000     0.010830000000     0.472298   
C11      C      0.597670000000     0.686760000000     0.009840000000     0.471525   
C12      C      0.757630000000     0.691910000000     0.015010000000     0.473407   
C13      C      0.263240000000     0.672450000000     0.018020000000     0.47306    
C14      C      0.422890000000     0.680080000000     0.011270000000     0.470719   
C15      C      0.346510000000     0.596510000000     0.015730000000     0.472078   
C16      C      0.339260000000     0.756210000000     0.013660000000     0.472283   
C17      C      0.758670000000     0.019260000000     0.685730000000     0.473925   
C18      C      0.598880000000     0.021160000000     0.683390000000     0.472493   
C19      C      0.680060000000     0.019340000000     0.604780000000     0.472037   
C20      C      0.677920000000     0.022100000000     0.764530000000     0.473227   
C21      C      0.264510000000     0.010280000000     0.679420000000     0.474593   
C22      C      0.424310000000     0.017110000000     0.679210000000     0.473125   
C23      C      0.344370000000     0.014650000000     0.598910000000     0.472978   
C24      C      0.344390000000     0.011910000000     0.758730000000     0.47489    
C25      C      0.349200000000     0.014340000000     0.264620000000     0.473548   
C26      C      0.347360000000     0.014570000000     0.424360000000     0.471783   
C27      C      0.428340000000     0.015610000000     0.345340000000     0.4726     
C28      C      0.268570000000     0.013030000000     0.343960000000     0.473837   
C29      C      0.762670000000     0.019760000000     0.350870000000     0.47419    
C30      C      0.602880000000     0.017390000000     0.349410000000     0.472621   
C31      C      0.682280000000     0.018700000000     0.430240000000     0.472286   
C32      C      0.683230000000     0.018260000000     0.270480000000     0.473776   
C33      C      0.013380000000     0.677640000000     0.765490000000     0.474125   
C34      C      0.015130000000     0.679770000000     0.605630000000     0.472886   
C35      C      0.018160000000     0.598520000000     0.684170000000     0.47279    
C36      C      0.010930000000     0.758270000000     0.686940000000     0.47464    
C37      C      0.018760000000     0.264120000000     0.677960000000     0.473019   
C38      C      0.021770000000     0.423960000000     0.678270000000     0.471862   
C39      C      0.019780000000     0.344170000000     0.597860000000     0.472225   
C40      C      0.021640000000     0.344060000000     0.757580000000     0.473866   
C41      C      0.013620000000     0.683180000000     0.271400000000     0.474303   
C42      C      0.014420000000     0.681740000000     0.431090000000     0.472096   
C43      C      0.015570000000     0.602550000000     0.349940000000     0.472289   
C44      C      0.012220000000     0.762320000000     0.351930000000     0.473679   
C45      C      0.017640000000     0.348860000000     0.263530000000     0.473227   
C46      C      0.018990000000     0.347060000000     0.423330000000     0.472206   
C47      C      0.017520000000     0.428030000000     0.344400000000     0.472152   
C48      C      0.019270000000     0.268230000000     0.342970000000     0.473625   
C49      C      0.941520000000     0.350090000000     0.009280000000     0.473123   
C50      C      0.100730000000     0.343850000000     0.011300000000     0.473417   
C51      C      0.019730000000     0.347840000000     0.090070000000     0.473113   
C52      C      0.022230000000     0.346120000000     0.930870000000     0.473641   
C53      C      0.930900000000     0.687830000000     0.018650000000     0.475216   
C54      C      0.090010000000     0.675270000000     0.019450000000     0.475939   
C55      C      0.010710000000     0.682510000000     0.098310000000     0.476431   
C56      C      0.010700000000     0.680420000000     0.938840000000     0.475829   
C57      C      0.095170000000     0.012730000000     0.347040000000     0.474245   
C58      C      0.936020000000     0.018070000000     0.349440000000     0.474076   
C59      C      0.012910000000     0.935730000000     0.349930000000     0.473492   
C60      C      0.018250000000     0.094880000000     0.346560000000     0.473958   
C61      C      0.931990000000     0.013870000000     0.684470000000     0.474009   
C62      C      0.091160000000     0.008490000000     0.683020000000     0.473522   
C63      C      0.014170000000     0.090710000000     0.681610000000     0.473167   
C64      C      0.008960000000     0.931560000000     0.685840000000     0.473574   
C65      C      0.681770000000     0.020430000000     0.097130000000     0.473668   
C66      C      0.679450000000     0.023050000000     0.937930000000     0.472976   
C67      C      0.678700000000     0.942310000000     0.016420000000     0.474027   
C68      C      0.682720000000     0.101480000000     0.018690000000     0.47359    
C69      C      0.345510000000     0.008990000000     0.931970000000     0.476336   
C70      C      0.347760000000     0.010400000000     0.091450000000     0.476044   
C71      C      0.341490000000     0.929700000000     0.012470000000     0.475107   
C72      C      0.351910000000     0.088950000000     0.011490000000     0.475966   
C73      C      0.993040000000     0.160290000000     0.371840000000     0.0339877  
C74      C      0.045450000000     0.158830000000     0.318870000000     0.0309026  
C75      C      0.047270000000     0.202910000000     0.319550000000     0.0309724  
C76      C      0.991910000000     0.204190000000     0.369450000000     0.0343203  
C77      C      0.045920000000     0.373360000000     0.198960000000     0.0314055  
C78      C      0.989290000000     0.324910000000     0.198610000000     0.0334934  
C79      C      0.991380000000     0.322960000000     0.154620000000     0.0337258  
C80      C      0.045220000000     0.374490000000     0.154960000000     0.0305822  
C81      C      0.979220000000     0.536860000000     0.348280000000     0.0327215  
C82      C      0.053620000000     0.537750000000     0.347320000000     0.0298832  
C83      C      0.054050000000     0.493710000000     0.346000000000     0.0300693  
C84      C      0.979650000000     0.492870000000     0.346460000000     0.032593   
C85      C      0.983320000000     0.826820000000     0.327530000000     0.033904   
C86      C      0.039550000000     0.827240000000     0.376450000000     0.0315842  
C87      C      0.038420000000     0.871230000000     0.377340000000     0.0310795  
C88      C      0.985060000000     0.870830000000     0.325310000000     0.0339548  
C89      C      0.038720000000     0.709800000000     0.206300000000     0.0311172  
C90      C      0.987110000000     0.655970000000     0.207350000000     0.0344192  
C91      C      0.987810000000     0.654460000000     0.163400000000     0.0352914  
C92      C      0.036080000000     0.711300000000     0.162330000000     0.0321885  
C93      C      0.056620000000     0.344990000000     0.532420000000     0.0300115  
C94      C      0.982220000000     0.344880000000     0.532780000000     0.0326181  
C95      C      0.982090000000     0.345910000000     0.488750000000     0.0327054  
C96      C      0.056490000000     0.345600000000     0.488410000000     0.0298805  
C97      C      0.049590000000     0.319590000000     0.822420000000     0.031226   
C98      C      0.995050000000     0.370430000000     0.822050000000     0.0344105  
C99      C      0.996660000000     0.372450000000     0.865960000000     0.0341207  
C100     C      0.048180000000     0.318550000000     0.866450000000     0.031046   
C101     C      0.989310000000     0.200650000000     0.703950000000     0.0338295  
C102     C      0.044840000000     0.198150000000     0.654300000000     0.0311747  
C103     C      0.042190000000     0.154140000000     0.653680000000     0.0307537  
C104     C      0.989590000000     0.156680000000     0.706410000000     0.0338981  
C105     C      0.977610000000     0.681470000000     0.496510000000     0.0325669  
C106     C      0.052010000000     0.680930000000     0.496180000000     0.0300941  
C107     C      0.052270000000     0.680630000000     0.540250000000     0.029806   
C108     C      0.977870000000     0.680830000000     0.540500000000     0.0328781  
C109     C      0.983110000000     0.532480000000     0.680210000000     0.0326589  
C110     C      0.057410000000     0.534070000000     0.683520000000     0.0299741  
C111     C      0.058380000000     0.489880000000     0.681930000000     0.0296231  
C112     C      0.984070000000     0.488640000000     0.678440000000     0.0327845  
C113     C      0.037720000000     0.823430000000     0.711290000000     0.0321457  
C114     C      0.980040000000     0.822370000000     0.664090000000     0.0347113  
C115     C      0.981060000000     0.866410000000     0.662040000000     0.0341461  
C116     C      0.035870000000     0.867380000000     0.712550000000     0.0310708  
C117     C      0.983640000000     0.654750000000     0.830100000000     0.0345612  
C118     C      0.040970000000     0.702400000000     0.830240000000     0.0316828  
C119     C      0.038810000000     0.704810000000     0.874150000000     0.0311829  
C120     C      0.984320000000     0.653940000000     0.874150000000     0.0340933  
C121     C      0.827330000000     0.992480000000     0.376030000000     0.034562   
C122     C      0.827380000000     0.047770000000     0.326060000000     0.031265   
C123     C      0.871380000000     0.045720000000     0.323990000000     0.0310501  
C124     C      0.871320000000     0.993390000000     0.377060000000     0.034195   
C125     C      0.707040000000     0.990440000000     0.205260000000     0.0337558  
C126     C      0.658010000000     0.046580000000     0.206320000000     0.0315953  
C127     C      0.656240000000     0.045880000000     0.162390000000     0.0309171  
C128     C      0.708330000000     0.992570000000     0.161240000000     0.0338511  
C129     C      0.538020000000     0.979520000000     0.347820000000     0.0326305  
C130     C      0.537240000000     0.053910000000     0.347860000000     0.0301825  
C131     C      0.493220000000     0.053530000000     0.346460000000     0.0298538  
C132     C      0.493990000000     0.979140000000     0.346920000000     0.0327932  
C133     C      0.203530000000     0.984080000000     0.320920000000     0.0338218  
C134     C      0.204220000000     0.040410000000     0.369700000000     0.0314889  
C135     C      0.160320000000     0.038960000000     0.372010000000     0.0309718  
C136     C      0.159440000000     0.985460000000     0.320130000000     0.0337459  
C137     C      0.376310000000     0.988000000000     0.200340000000     0.0342579  
C138     C      0.322280000000     0.039390000000     0.199650000000     0.0308753  
C139     C      0.320230000000     0.036470000000     0.155730000000     0.0321052  
C140     C      0.377280000000     0.988460000000     0.156330000000     0.0350301  
C141     C      0.345420000000     0.052050000000     0.533660000000     0.0298029  
C142     C      0.344810000000     0.977670000000     0.533620000000     0.0328061  
C143     C      0.345500000000     0.977570000000     0.489640000000     0.032594   
C144     C      0.346450000000     0.051940000000     0.489600000000     0.0299803  
C145     C      0.320460000000     0.038970000000     0.824010000000     0.0317859  
C146     C      0.368600000000     0.982040000000     0.822720000000     0.034625   
C147     C      0.370480000000     0.982710000000     0.866700000000     0.0342992  
C148     C      0.319130000000     0.036750000000     0.867960000000     0.031266   
C149     C      0.156120000000     0.035710000000     0.707350000000     0.0307516  
C150     C      0.155620000000     0.980530000000     0.657250000000     0.0338702  
C151     C      0.199740000000     0.979500000000     0.658040000000     0.0344639  
C152     C      0.200000000000     0.037490000000     0.704860000000     0.0319639  
C153     C      0.681650000000     0.056020000000     0.495370000000     0.0299447  
C154     C      0.681750000000     0.981630000000     0.495630000000     0.0326775  
C155     C      0.681390000000     0.981720000000     0.539690000000     0.0326404  
C156     C      0.680870000000     0.056110000000     0.539360000000     0.0300294  
C157     C      0.490540000000     0.982140000000     0.678860000000     0.0326934  
C158     C      0.488600000000     0.056430000000     0.682140000000     0.0299561  
C159     C      0.532770000000     0.057500000000     0.683380000000     0.0297423  
C160     C      0.534420000000     0.983200000000     0.680010000000     0.032824   
C161     C      0.822700000000     0.990220000000     0.710830000000     0.0341823  
C162     C      0.824010000000     0.045120000000     0.660430000000     0.0314275  
C163     C      0.867940000000     0.042160000000     0.658460000000     0.0311598  
C164     C      0.866730000000     0.990240000000     0.711920000000     0.0341642  
C165     C      0.703090000000     0.050620000000     0.828840000000     0.03111    
C166     C      0.652890000000     0.995520000000     0.829630000000     0.0342865  
C167     C      0.651830000000     0.997180000000     0.873610000000     0.0340148  
C168     C      0.705120000000     0.049300000000     0.872850000000     0.0310172  
C169     C      0.312850000000     0.821120000000     0.986730000000     0.0336768  
C170     C      0.364490000000     0.820890000000     0.040450000000     0.0312814  
C171     C      0.366170000000     0.864770000000     0.039020000000     0.0321334  
C172     C      0.311540000000     0.865310000000     0.988360000000     0.034204   
C173     C      0.197900000000     0.645760000000     0.993050000000     0.0342286  
C174     C      0.199220000000     0.696300000000     0.047810000000     0.0309251  
C175     C      0.155290000000     0.698380000000     0.046790000000     0.0322448  
C176     C      0.153810000000     0.644740000000     0.995070000000     0.0342116  
C177     C      0.532030000000     0.686000000000     0.972340000000     0.0322814  
C178     C      0.532550000000     0.682980000000     0.046600000000     0.0299418  
C179     C      0.488690000000     0.681250000000     0.046980000000     0.0297413  
C180     C      0.487760000000     0.684410000000     0.972730000000     0.032426   
C181     C      0.652850000000     0.833630000000     0.043470000000     0.0319037  
C182     C      0.700170000000     0.833780000000     0.985870000000     0.0346784  
C183     C      0.702580000000     0.877660000000     0.987970000000     0.0340657  
C184     C      0.652010000000     0.877690000000     0.042740000000     0.0311189  
C185     C      0.823490000000     0.716240000000     0.988970000000     0.0346191  
C186     C      0.821150000000     0.668500000000     0.046150000000     0.0317775  
C187     C      0.865090000000     0.666080000000     0.045830000000     0.0322398  
C188     C      0.867580000000     0.717150000000     0.991610000000     0.0343036  
C189     C      0.351160000000     0.487240000000     0.979240000000     0.0327909  
C190     C      0.348580000000     0.487270000000     0.053550000000     0.0299303  
C191     C      0.347370000000     0.531370000000     0.053420000000     0.0300174  
C192     C      0.349990000000     0.531180000000     0.979110000000     0.0325989  
C193     C      0.210260000000     0.363710000000     0.982630000000     0.0344582  
C194     C      0.208580000000     0.316780000000     0.040490000000     0.0317607  
C195     C      0.164530000000     0.316310000000     0.038760000000     0.0308231  
C196     C      0.166300000000     0.366550000000     0.983760000000     0.0340571  
C197     C      0.380190000000     0.197290000000     0.985080000000     0.0345507  
C198     C      0.331940000000     0.197660000000     0.041910000000     0.0315843  
C199     C      0.329410000000     0.153830000000     0.039990000000     0.0320433  
C200     C      0.380940000000     0.153140000000     0.986130000000     0.0341767  
C201     C      0.686810000000     0.499720000000     0.973740000000     0.032595   
C202     C      0.683860000000     0.500130000000     0.048020000000     0.0298065  
C203     C      0.681980000000     0.544020000000     0.047770000000     0.0299098  
C204     C      0.684910000000     0.543860000000     0.973490000000     0.0325013  
C205     C      0.543440000000     0.349330000000     0.054540000000     0.0299339  
C206     C      0.542830000000     0.352410000000     0.980240000000     0.0326685  
C207     C      0.499020000000     0.349850000000     0.980410000000     0.0328411  
C208     C      0.499300000000     0.346930000000     0.054710000000     0.0299244  
C209     C      0.833830000000     0.379070000000     0.036950000000     0.0314108  
C210     C      0.831800000000     0.328790000000     0.981980000000     0.0338092  
C211     C      0.875790000000     0.325910000000     0.983110000000     0.0338589  
C212     C      0.877840000000     0.379220000000     0.035140000000     0.0309522  
C213     C      0.711400000000     0.209810000000     0.044810000000     0.0309939  
C214     C      0.660720000000     0.210500000000     0.990170000000     0.034291   
C215     C      0.657730000000     0.166650000000     0.992390000000     0.0339678  
C216     C      0.711400000000     0.165720000000     0.044080000000     0.0310622  
H1       H      0.971450000000     0.144530000000     0.393200000000     0.0319194  
H2       H      0.066700000000     0.141820000000     0.298130000000     0.0308754  
H3       H      0.069370000000     0.218800000000     0.298820000000     0.0304353  
H4       H      0.969950000000     0.221070000000     0.389560000000     0.0312787  
H5       H      0.068320000000     0.393310000000     0.215440000000     0.0313089  
H6       H      0.966550000000     0.305150000000     0.214840000000     0.0310481  
H7       H      0.969650000000     0.302310000000     0.138110000000     0.031621   
H8       H      0.067510000000     0.394790000000     0.138780000000     0.0318489  
H9       H      0.948780000000     0.552440000000     0.349110000000     0.0331839  
H10      H      0.083670000000     0.554100000000     0.347550000000     0.0332827  
H11      H      0.084460000000     0.478080000000     0.345190000000     0.0334838  
H12      H      0.949570000000     0.476580000000     0.346190000000     0.0329407  
H13      H      0.960930000000     0.810250000000     0.307650000000     0.0312312  
H14      H      0.061930000000     0.811050000000     0.396650000000     0.0312628  
H15      H      0.060410000000     0.887720000000     0.397730000000     0.0320315  
H16      H      0.963440000000     0.887080000000     0.304360000000     0.032051   
H17      H      0.059500000000     0.731760000000     0.222330000000     0.0301511  
H18      H      0.966950000000     0.634020000000     0.224180000000     0.030599   
H19      H      0.967730000000     0.631800000000     0.147430000000     0.0295915  
H20      H      0.055500000000     0.733850000000     0.145450000000     0.0290719  
H21      H      0.086950000000     0.344680000000     0.548230000000     0.033515   
H22      H      0.952050000000     0.344630000000     0.548890000000     0.0329626  
H23      H      0.951770000000     0.346240000000     0.472930000000     0.0332247  
H24      H      0.086670000000     0.345830000000     0.472310000000     0.033209   
H25      H      0.071200000000     0.298610000000     0.806180000000     0.0307699  
H26      H      0.973290000000     0.391030000000     0.805520000000     0.0312629  
H27      H      0.975600000000     0.394040000000     0.882130000000     0.0321697  
H28      H      0.069250000000     0.297310000000     0.883060000000     0.0314913  
H29      H      0.967650000000     0.218010000000     0.723960000000     0.0312982  
H30      H      0.067390000000     0.213530000000     0.633670000000     0.0309111  
H31      H      0.063250000000     0.136730000000     0.633090000000     0.0312438  
H32      H      0.967640000000     0.141350000000     0.727720000000     0.0317591  
H33      H      0.947280000000     0.681810000000     0.480700000000     0.033101   
H34      H      0.082180000000     0.680940000000     0.480070000000     0.0334939  
H35      H      0.082550000000     0.680310000000     0.556130000000     0.0332007  
H36      H      0.947650000000     0.680800000000     0.556520000000     0.0333719  
H37      H      0.952460000000     0.547650000000     0.679400000000     0.0334008  
H38      H      0.087190000000     0.550770000000     0.685480000000     0.0331885  
H39      H      0.088820000000     0.474320000000     0.682760000000     0.0330663  
H40      H      0.954070000000     0.472320000000     0.676470000000     0.0335855  
H41      H      0.060970000000     0.807450000000     0.730670000000     0.0298912  
H42      H      0.957350000000     0.805520000000     0.644790000000     0.0303372  
H43      H      0.958640000000     0.882460000000     0.641770000000     0.0317647  
H44      H      0.058190000000     0.884130000000     0.732350000000     0.0317461  
H45      H      0.961060000000     0.634980000000     0.813670000000     0.0305994  
H46      H      0.064060000000     0.721680000000     0.813920000000     0.0302122  
H47      H      0.060810000000     0.725290000000     0.890520000000     0.031442   
H48      H      0.961820000000     0.634030000000     0.890530000000     0.0318056  
H49      H      0.810930000000     0.970590000000     0.396600000000     0.0312548  
H50      H      0.810980000000     0.069880000000     0.305730000000     0.03073    
H51      H      0.887840000000     0.066830000000     0.302690000000     0.031435   
H52      H      0.887640000000     0.971730000000     0.397930000000     0.032215   
H53      H      0.727210000000     0.967880000000     0.221220000000     0.031205   
H54      H      0.638020000000     0.068730000000     0.223080000000     0.0314121  
H55      H      0.635440000000     0.067950000000     0.146530000000     0.0319624  
H56      H      0.728910000000     0.971050000000     0.144380000000     0.0319122  
H57      H      0.554300000000     0.949440000000     0.348270000000     0.0329823  
H58      H      0.552900000000     0.084320000000     0.348180000000     0.0334512  
H59      H      0.476920000000     0.083590000000     0.345960000000     0.0332463  
H60      H      0.478340000000     0.948720000000     0.346610000000     0.0332081  
H61      H      0.219650000000     0.961710000000     0.300660000000     0.030921   
H62      H      0.220850000000     0.062900000000     0.389420000000     0.0312828  
H63      H      0.144330000000     0.060870000000     0.392880000000     0.031721   
H64      H      0.142670000000     0.963650000000     0.299790000000     0.0314933  
H65      H      0.398460000000     0.967960000000     0.217040000000     0.0303895  
H66      H      0.300380000000     0.060140000000     0.215810000000     0.0298828  
H67      H      0.297330000000     0.055660000000     0.139030000000     0.0286318  
H68      H      0.399770000000     0.968350000000     0.140170000000     0.0293435  
H69      H      0.345430000000     0.082270000000     0.549660000000     0.0330665  
H70      H      0.344200000000     0.947400000000     0.549520000000     0.0334273  
H71      H      0.345470000000     0.947300000000     0.473720000000     0.0330974  
H72      H      0.347080000000     0.082160000000     0.473590000000     0.0334467  
H73      H      0.300660000000     0.061930000000     0.808150000000     0.0299547  
H74      H      0.388230000000     0.959690000000     0.805800000000     0.0306253  
H75      H      0.391000000000     0.960410000000     0.882590000000     0.0317602  
H76      H      0.298880000000     0.058570000000     0.884840000000     0.0312931  
H77      H      0.139970000000     0.058170000000     0.727490000000     0.031364   
H78      H      0.138980000000     0.957960000000     0.637640000000     0.0313586  
H79      H      0.216050000000     0.956630000000     0.638500000000     0.0301733  
H80      H      0.216500000000     0.060810000000     0.723710000000     0.0299136  
H81      H      0.681750000000     0.086220000000     0.479320000000     0.033234   
H82      H      0.682060000000     0.951350000000     0.479750000000     0.0332875  
H83      H      0.681320000000     0.951560000000     0.555810000000     0.032977   
H84      H      0.680530000000     0.086440000000     0.555160000000     0.0335886  
H85      H      0.475480000000     0.951480000000     0.677100000000     0.0333476  
H86      H      0.471760000000     0.086170000000     0.683090000000     0.0333005  
H87      H      0.548160000000     0.087980000000     0.685160000000     0.033024   
H88      H      0.550920000000     0.953260000000     0.679070000000     0.0336087  
H89      H      0.805800000000     0.968880000000     0.731560000000     0.0313288  
H90      H      0.808150000000     0.067440000000     0.639930000000     0.0310822  
H91      H      0.884830000000     0.062820000000     0.637060000000     0.0317126  
H92      H      0.882600000000     0.968450000000     0.733000000000     0.0322115  
H93      H      0.723510000000     0.072410000000     0.812140000000     0.0309786  
H94      H      0.632240000000     0.973450000000     0.813580000000     0.0311944  
H95      H      0.630860000000     0.975880000000     0.890290000000     0.0320811  
H96      H      0.726500000000     0.070630000000     0.888930000000     0.0316308  
H97      H      0.291760000000     0.804760000000     0.965330000000     0.030864   
H98      H      0.385650000000     0.804510000000     0.061790000000     0.0313364  
H99      H      0.388170000000     0.880910000000     0.059700000000     0.0305376  
H100     H      0.290090000000     0.881970000000     0.967560000000     0.0308575  
H101     H      0.213830000000     0.625080000000     0.970930000000     0.0309126  
H102     H      0.216070000000     0.716950000000     0.069270000000     0.0312189  
H103     H      0.139460000000     0.720130000000     0.067960000000     0.0299495  
H104     H      0.136790000000     0.623880000000     0.973970000000     0.0304078  
H105     H      0.547900000000     0.687840000000     0.942120000000     0.0328472  
H106     H      0.548560000000     0.682320000000     0.076810000000     0.0337054  
H107     H      0.473260000000     0.679400000000     0.077440000000     0.0336208  
H108     H      0.471310000000     0.685050000000     0.942770000000     0.0329163  
H109     H      0.633250000000     0.817160000000     0.066160000000     0.0302364  
H110     H      0.719340000000     0.817460000000     0.962690000000     0.03028    
H111     H      0.722960000000     0.894040000000     0.965900000000     0.0319416  
H112     H      0.632270000000     0.894120000000     0.065350000000     0.0313619  
H113     H      0.807980000000     0.735930000000     0.965680000000     0.0297089  
H114     H      0.803870000000     0.649090000000     0.068410000000     0.0304586  
H115     H      0.880500000000     0.645300000000     0.068230000000     0.0300631  
H116     H      0.885040000000     0.736880000000     0.969780000000     0.0307946  
H117     H      0.352660000000     0.471330000000     0.949010000000     0.033343   
H118     H      0.347960000000     0.471260000000     0.083750000000     0.033359   
H119     H      0.345850000000     0.547460000000     0.083540000000     0.0334311  
H120     H      0.350600000000     0.547000000000     0.948800000000     0.0333526  
H121     H      0.227320000000     0.382620000000     0.959780000000     0.0305074  
H122     H      0.224320000000     0.297240000000     0.063750000000     0.0294415  
H123     H      0.147420000000     0.296870000000     0.061130000000     0.030715   
H124     H      0.150600000000     0.386970000000     0.961230000000     0.0315637  
H125     H      0.400160000000     0.213610000000     0.962600000000     0.0300297  
H126     H      0.312420000000     0.214160000000     0.064670000000     0.0298566  
H127     H      0.308470000000     0.137710000000     0.061750000000     0.0294994  
H128     H      0.400880000000     0.136400000000     0.963940000000     0.0302061  
H129     H      0.688650000000     0.483510000000     0.943690000000     0.033039   
H130     H      0.683320000000     0.484440000000     0.078390000000     0.0335417  
H131     H      0.680130000000     0.559940000000     0.077970000000     0.033482   
H132     H      0.685430000000     0.559830000000     0.943270000000     0.0330806  
H133     H      0.559730000000     0.348940000000     0.084580000000     0.0332052  
H134     H      0.558410000000     0.354490000000     0.949880000000     0.0334741  
H135     H      0.483090000000     0.350210000000     0.950160000000     0.0335099  
H136     H      0.483360000000     0.344840000000     0.084880000000     0.0331952  
H137     H      0.818290000000     0.400060000000     0.059050000000     0.0310199  
H138     H      0.814600000000     0.308630000000     0.960340000000     0.0312023  
H139     H      0.891360000000     0.304170000000     0.961770000000     0.031953   
H140     H      0.895010000000     0.399870000000     0.056350000000     0.0316808  
H141     H      0.732650000000     0.225910000000     0.066250000000     0.0308963  
H142     H      0.640500000000     0.227140000000     0.968130000000     0.0313721  
H143     H      0.635860000000     0.150680000000     0.971460000000     0.032061   
H144     H      0.732230000000     0.148960000000     0.065440000000     0.0313078  
N1       N      0.019000000000     0.137850000000     0.345740000000    -0.191679   
N2       N      0.019630000000     0.225260000000     0.343980000000    -0.191802   
N3       N      0.017410000000     0.349200000000     0.220530000000    -0.191625   
N4       N      0.018760000000     0.348400000000     0.133060000000    -0.191415   
N5       N      0.016200000000     0.559290000000     0.348600000000    -0.190502   
N6       N      0.017060000000     0.471300000000     0.345520000000    -0.19046    
N7       N      0.011460000000     0.805310000000     0.352140000000    -0.191737   
N8       N      0.012040000000     0.892750000000     0.350870000000    -0.191363   
N9       N      0.013330000000     0.682920000000     0.228480000000    -0.191787   
N10      N      0.011430000000     0.682880000000     0.141220000000    -0.192273   
N11      N      0.019490000000     0.344610000000     0.554600000000    -0.19049    
N12      N      0.019230000000     0.346220000000     0.466590000000    -0.190495   
N13      N      0.022190000000     0.344700000000     0.800540000000    -0.19178    
N14      N      0.022410000000     0.345700000000     0.887910000000    -0.191389   
N15      N      0.017650000000     0.221130000000     0.678680000000    -0.191559   
N16      N      0.015310000000     0.133690000000     0.680530000000    -0.19144    
N17      N      0.014670000000     0.681380000000     0.474350000000    -0.190467   
N18      N      0.015180000000     0.680430000000     0.562370000000    -0.190642   
N19      N      0.019710000000     0.555270000000     0.682730000000    -0.190574   
N20      N      0.021630000000     0.467250000000     0.679410000000    -0.190285   
N21      N      0.009310000000     0.801210000000     0.687640000000    -0.191959   
N22      N      0.008470000000     0.888600000000     0.686900000000    -0.191296   
N23      N      0.012690000000     0.678170000000     0.808460000000    -0.191758   
N24      N      0.011220000000     0.679770000000     0.895860000000    -0.191706   
N25      N      0.805650000000     0.020240000000     0.351150000000    -0.191922   
N26      N      0.893050000000     0.019130000000     0.350160000000    -0.19152    
N27      N      0.682710000000     0.018260000000     0.227500000000    -0.191759   
N28      N      0.682200000000     0.019640000000     0.140100000000    -0.191519   
N29      N      0.559620000000     0.016910000000     0.348430000000    -0.190673   
N30      N      0.471610000000     0.016140000000     0.346160000000    -0.190617   
N31      N      0.225590000000     0.012380000000     0.344840000000    -0.191878   
N32      N      0.138160000000     0.012280000000     0.346400000000    -0.191705   
N33      N      0.349440000000     0.014160000000     0.221670000000    -0.191489   
N34      N      0.348380000000     0.011730000000     0.134360000000    -0.192168   
N35      N      0.344780000000     0.014900000000     0.555640000000    -0.19063    
N36      N      0.346480000000     0.014680000000     0.467620000000    -0.190394   
N37      N      0.344450000000     0.010940000000     0.801670000000    -0.191992   
N38      N      0.344980000000     0.009400000000     0.889020000000    -0.191955   
N39      N      0.134150000000     0.008090000000     0.682580000000    -0.191441   
N40      N      0.221570000000     0.008880000000     0.680840000000    -0.191987   
N41      N      0.681920000000     0.018800000000     0.473500000000    -0.190519   
N42      N      0.680780000000     0.018970000000     0.561520000000    -0.19041    
N43      N      0.467570000000     0.018680000000     0.679960000000    -0.190684   
N44      N      0.555600000000     0.020820000000     0.682320000000    -0.19051    
N45      N      0.801650000000     0.018320000000     0.685780000000    -0.191798   
N46      N      0.889030000000     0.015410000000     0.684920000000    -0.191491   
N47      N      0.677850000000     0.022880000000     0.807510000000    -0.19159    
N48      N      0.678790000000     0.023230000000     0.894950000000    -0.191219   
N49      N      0.338770000000     0.799250000000     0.013440000000    -0.191097   
N50      N      0.339240000000     0.886770000000     0.013530000000    -0.191691   
N51      N      0.220280000000     0.671210000000     0.019810000000    -0.191361   
N52      N      0.132860000000     0.672300000000     0.020750000000    -0.192124   
N53      N      0.554340000000     0.685270000000     0.009360000000    -0.190087   
N54      N      0.466180000000     0.681940000000     0.010120000000    -0.189982   
N55      N      0.676140000000     0.812010000000     0.014310000000    -0.192025   
N56      N      0.677720000000     0.899360000000     0.015710000000    -0.191469   
N57      N      0.800610000000     0.692410000000     0.016740000000    -0.191423   
N58      N      0.888030000000     0.690860000000     0.018990000000    -0.191626   
N59      N      0.350430000000     0.465250000000     0.016420000000    -0.190716   
N60      N      0.348020000000     0.553270000000     0.016160000000    -0.190539   
N61      N      0.231140000000     0.339830000000     0.011850000000    -0.191755   
N62      N      0.143700000000     0.342180000000     0.011260000000    -0.191363   
N63      N      0.356320000000     0.219180000000     0.013610000000    -0.191743   
N64      N      0.354460000000     0.131820000000     0.012670000000    -0.192035   
N65      N      0.686170000000     0.477910000000     0.011050000000    -0.190342   
N66      N      0.682430000000     0.565950000000     0.010550000000    -0.190412   
N67      N      0.565110000000     0.351990000000     0.017240000000    -0.190594   
N68      N      0.477190000000     0.347090000000     0.017580000000    -0.190712   
N69      N      0.811090000000     0.354440000000     0.009800000000    -0.191598   
N70      N      0.898540000000     0.351770000000     0.009100000000    -0.191295   
N71      N      0.686880000000     0.231860000000     0.017010000000    -0.191599   
N72      N      0.683890000000     0.144470000000     0.018520000000    -0.191452   
O1       O      0.746850000000     0.350110000000     0.976870000000    -0.551847   
O2       O      0.627460000000     0.356060000000     0.980760000000    -0.556263   
O3       O      0.689430000000     0.413590000000     0.977110000000    -0.549967   
O4       O      0.683510000000     0.293930000000     0.980520000000    -0.553545   
O5       O      0.693650000000     0.295760000000     0.050200000000    -0.55141    
O6       O      0.686170000000     0.415220000000     0.047330000000    -0.55551    
O7       O      0.629650000000     0.352200000000     0.050940000000    -0.550446   
O8       O      0.749290000000     0.359720000000     0.046600000000    -0.553437   
O9       O      0.293120000000     0.338740000000     0.048720000000    -0.552704   
O10      O      0.413030000000     0.343210000000     0.051840000000    -0.550232   
O11      O      0.351060000000     0.401320000000     0.051110000000    -0.551655   
O12      O      0.353970000000     0.281590000000     0.049450000000    -0.554889   
O13      O      0.357740000000     0.282670000000     0.979080000000    -0.552243   
O14      O      0.353210000000     0.402290000000     0.980810000000    -0.55672    
O15      O      0.414550000000     0.344620000000     0.981540000000    -0.558834   
O16      O      0.295120000000     0.341690000000     0.978330000000    -0.553681   
O17      O      0.678080000000     0.749800000000     0.978060000000    -0.551888   
O18      O      0.681080000000     0.630000000000     0.975950000000    -0.547698   
O19      O      0.618780000000     0.688230000000     0.975140000000    -0.544386   
O20      O      0.738970000000     0.692850000000     0.979050000000    -0.547451   
O21      O      0.736330000000     0.689540000000     0.049400000000    -0.556875   
O22      O      0.617010000000     0.686580000000     0.045420000000    -0.561      
O23      O      0.678420000000     0.628830000000     0.046220000000    -0.559238   
O24      O      0.673960000000     0.748360000000     0.048400000000    -0.555671   
O25      O      0.281820000000     0.669120000000     0.982200000000    -0.548904   
O26      O      0.401230000000     0.681430000000     0.976930000000    -0.545089   
O27      O      0.347020000000     0.616270000000     0.980320000000    -0.551153   
O28      O      0.334740000000     0.735590000000     0.979010000000    -0.545651   
O29      O      0.345420000000     0.736770000000     0.048620000000    -0.557183   
O30      O      0.344340000000     0.617150000000     0.050590000000    -0.554439   
O31      O      0.404100000000     0.676930000000     0.047040000000    -0.557894   
O32      O      0.284610000000     0.677980000000     0.052020000000    -0.554662   
O33      O      0.737970000000     0.984700000000     0.690070000000    -0.554346   
O34      O      0.618910000000     0.986010000000     0.681800000000    -0.558731   
O35      O      0.681930000000     0.984490000000     0.625610000000    -0.550067   
O36      O      0.673800000000     0.986730000000     0.745230000000    -0.552501   
O37      O      0.682420000000     0.056650000000     0.743790000000    -0.552146   
O38      O      0.677540000000     0.054710000000     0.624340000000    -0.555559   
O39      O      0.619290000000     0.056240000000     0.685850000000    -0.548168   
O40      O      0.739360000000     0.054580000000     0.681030000000    -0.551557   
O41      O      0.283080000000     0.046240000000     0.680510000000    -0.556306   
O42      O      0.402650000000     0.051410000000     0.680080000000    -0.552997   
O43      O      0.342940000000     0.049580000000     0.619660000000    -0.550722   
O44      O      0.341780000000     0.047510000000     0.739580000000    -0.55346    
O45      O      0.346960000000     0.977210000000     0.737950000000    -0.554397   
O46      O      0.345650000000     0.979280000000     0.618550000000    -0.557696   
O47      O      0.405600000000     0.981140000000     0.677950000000    -0.555592   
O48      O      0.285880000000     0.975840000000     0.677620000000    -0.551191   
O49      O      0.344450000000     0.049290000000     0.284640000000    -0.551813   
O50      O      0.349680000000     0.049680000000     0.404270000000    -0.554769   
O51      O      0.407540000000     0.050390000000     0.342510000000    -0.55256    
O52      O      0.287910000000     0.048390000000     0.347720000000    -0.555575   
O53      O      0.289250000000     0.978350000000     0.340000000000    -0.550644   
O54      O      0.408740000000     0.980220000000     0.347550000000    -0.554658   
O55      O      0.345720000000     0.979420000000     0.404040000000    -0.550778   
O56      O      0.353470000000     0.979380000000     0.284550000000    -0.552846   
O57      O      0.742080000000     0.054460000000     0.346780000000    -0.552922   
O58      O      0.622450000000     0.052770000000     0.352030000000    -0.556068   
O59      O      0.684310000000     0.053760000000     0.409820000000    -0.553282   
O60      O      0.679000000000     0.053300000000     0.290290000000    -0.555904   
O61      O      0.687550000000     0.983350000000     0.290690000000    -0.550071   
O62      O      0.680540000000     0.983500000000     0.410250000000    -0.553329   
O63      O      0.623720000000     0.982560000000     0.347470000000    -0.551173   
O64      O      0.743250000000     0.984430000000     0.354600000000    -0.553517   
O65      O      0.978530000000     0.675080000000     0.744920000000    -0.553249   
O66      O      0.979850000000     0.677920000000     0.625430000000    -0.557027   
O67      O      0.982160000000     0.617210000000     0.683890000000    -0.55632    
O68      O      0.976570000000     0.736780000000     0.685230000000    -0.552011   
O69      O      0.046980000000     0.739850000000     0.687890000000    -0.554951   
O70      O      0.052450000000     0.620200000000     0.685490000000    -0.551631   
O71      O      0.050160000000     0.680950000000     0.626200000000    -0.550769   
O72      O      0.048850000000     0.680290000000     0.746090000000    -0.553332   
O73      O      0.984310000000     0.285060000000     0.682150000000    -0.55458    
O74      O      0.986510000000     0.404210000000     0.675720000000    -0.558968   
O75      O      0.984840000000     0.342100000000     0.618510000000    -0.551768   
O76      O      0.986420000000     0.348480000000     0.738100000000    -0.55436    
O77      O      0.056300000000     0.339360000000     0.737070000000    -0.551243   
O78      O      0.055100000000     0.346000000000     0.617620000000    -0.55442    
O79      O      0.056730000000     0.403270000000     0.680230000000    -0.546815   
O80      O      0.054240000000     0.283240000000     0.673520000000    -0.549974   
O81      O      0.048630000000     0.687820000000     0.291340000000    -0.551693   
O82      O      0.049480000000     0.680100000000     0.410830000000    -0.554572   
O83      O      0.050270000000     0.623580000000     0.347720000000    -0.551683   
O84      O      0.047690000000     0.743110000000     0.355490000000    -0.554431   
O85      O      0.977630000000     0.741500000000     0.347960000000    -0.551068   
O86      O      0.980120000000     0.621920000000     0.353080000000    -0.554919   
O87      O      0.979190000000     0.683720000000     0.410940000000    -0.551749   
O88      O      0.978760000000     0.678430000000     0.291410000000    -0.554187   
O89      O      0.982830000000     0.344520000000     0.283930000000    -0.550713   
O90      O      0.983710000000     0.349400000000     0.403550000000    -0.554203   
O91      O      0.982620000000     0.407360000000     0.341970000000    -0.551728   
O92      O      0.984030000000     0.287790000000     0.346900000000    -0.554435   
O93      O      0.054050000000     0.288700000000     0.338790000000    -0.551416   
O94      O      0.052880000000     0.408300000000     0.346070000000    -0.554623   
O95      O      0.053960000000     0.345380000000     0.402710000000    -0.551937   
O96      O      0.052820000000     0.352730000000     0.283190000000    -0.554312   
O97      O      0.960290000000     0.314610000000     0.003500000000    -0.548122   
O98      O      0.079290000000     0.310090000000     0.018010000000    -0.54938    
O99      O      0.012460000000     0.313220000000     0.070250000000    -0.550306   
O100     O      0.027050000000     0.311460000000     0.951310000000    -0.548118   
O101     O      0.016870000000     0.381170000000     0.950510000000    -0.550401   
O102     O      0.027940000000     0.381930000000     0.069730000000    -0.551397   
O103     O      0.082060000000     0.379160000000     0.004430000000    -0.551794   
O104     O      0.962870000000     0.383960000000     0.015630000000    -0.550021   
O105     O      0.947970000000     0.651400000000     0.022850000000    -0.553638   
O106     O      0.067270000000     0.641850000000     0.015470000000    -0.550472   
O107     O      0.009550000000     0.647020000000     0.078760000000    -0.554629   
O108     O      0.003540000000     0.646180000000     0.959270000000    -0.552403   
O109     O      0.017670000000     0.715220000000     0.958420000000    -0.551601   
O110     O      0.011420000000     0.717560000000     0.077960000000    -0.553344   
O111     O      0.072890000000     0.711790000000     0.022390000000    -0.556792   
O112     O      0.953720000000     0.721130000000     0.014130000000    -0.548411   
O113     O      0.075780000000     0.020390000000     0.381780000000    -0.55367    
O114     O      0.956430000000     0.011650000000     0.383840000000    -0.552043   
O115     O      0.020490000000     0.956330000000     0.383990000000    -0.551223   
O116     O      0.011730000000     0.075680000000     0.381640000000    -0.55373    
O117     O      0.023480000000     0.073980000000     0.312230000000    -0.549333   
O118     O      0.006660000000     0.955240000000     0.314950000000    -0.547785   
O119     O      0.955700000000     0.023060000000     0.314360000000    -0.547711   
O120     O      0.074450000000     0.006230000000     0.312820000000    -0.550157   
O121     O      0.952170000000     0.007590000000     0.719030000000    -0.551064   
O122     O      0.071570000000     0.016500000000     0.717580000000    -0.552645   
O123     O      0.007390000000     0.071740000000     0.716780000000    -0.552255   
O124     O      0.016380000000     0.952350000000     0.719830000000    -0.550293   
O125     O      0.002780000000     0.950860000000     0.650750000000    -0.548013   
O126     O      0.019680000000     0.069550000000     0.647480000000    -0.549362   
O127     O      0.070630000000     0.001720000000     0.648730000000    -0.54963    
O128     O      0.951900000000     0.018680000000     0.649500000000    -0.548121   
O129     O      0.647060000000     0.028090000000     0.077640000000    -0.552135   
O130     O      0.644990000000     0.017180000000     0.958460000000    -0.550066   
O131     O      0.644630000000     0.963060000000     0.023620000000    -0.549718   
O132     O      0.647500000000     0.082330000000     0.012570000000    -0.551788   
O133     O      0.716950000000     0.080510000000     0.024340000000    -0.550459   
O134     O      0.713700000000     0.961650000000     0.009730000000    -0.549844   
O135     O      0.714550000000     0.028390000000     0.957530000000    -0.547449   
O136     O      0.716020000000     0.013660000000     0.076510000000    -0.550363   
O137     O      0.380430000000     0.002480000000     0.951490000000    -0.552212   
O138     O      0.382760000000     0.009420000000     0.070990000000    -0.553753   
O139     O      0.377750000000     0.947400000000     0.015520000000    -0.554787   
O140     O      0.385520000000     0.066630000000     0.006980000000    -0.551083   
O141     O      0.315690000000     0.071400000000     0.015650000000    -0.556387   
O142     O      0.307710000000     0.951960000000     0.008840000000    -0.547593   
O143     O      0.312200000000     0.010430000000     0.071990000000    -0.553745   
O144     O      0.311160000000     0.015520000000     0.952440000000    -0.552357   
V1       V      0.686870000000     0.353470000000     0.975930000000     1.39866    
V2       V      0.689750000000     0.355740000000     0.051660000000     1.38553    
V3       V      0.352820000000     0.341240000000     0.053110000000     1.3831     
V4       V      0.355140000000     0.342710000000     0.977170000000     1.40778    
V5       V      0.679180000000     0.690160000000     0.974190000000     1.37822    
V6       V      0.676390000000     0.688380000000     0.050100000000     1.40841    
V7       V      0.341160000000     0.675680000000     0.976700000000     1.37922    
V8       V      0.344640000000     0.677170000000     0.052410000000     1.4006     
V9       V      0.678220000000     0.982620000000     0.685660000000     1.40314    
V10      V      0.679580000000     0.058450000000     0.683840000000     1.38166    
V11      V      0.342570000000     0.051510000000     0.679860000000     1.3869     
V12      V      0.346050000000     0.975580000000     0.678040000000     1.4048     
V13      V      0.347460000000     0.052320000000     0.344630000000     1.3891     
V14      V      0.349230000000     0.976470000000     0.344110000000     1.39594    
V15      V      0.682050000000     0.056450000000     0.349840000000     1.39224    
V16      V      0.683720000000     0.980580000000     0.350650000000     1.39481    
V17      V      0.976500000000     0.676680000000     0.684960000000     1.40524    
V18      V      0.052440000000     0.680340000000     0.686360000000     1.38453    
V19      V      0.982670000000     0.344880000000     0.678530000000     1.40731    
V20      V      0.058510000000     0.342990000000     0.677150000000     1.37681    
V21      V      0.051910000000     0.683620000000     0.351230000000     1.38709    
V22      V      0.976050000000     0.681460000000     0.350990000000     1.39887    
V23      V      0.980430000000     0.347340000000     0.343950000000     1.39809    
V24      V      0.056310000000     0.348700000000     0.342730000000     1.3867     
V25      V      0.019660000000     0.309220000000     0.010810000000     1.37422    
V26      V      0.022580000000     0.384670000000     0.010060000000     1.38102    
V27      V      0.007030000000     0.643700000000     0.019060000000     1.385      
V28      V      0.013920000000     0.719350000000     0.018120000000     1.38769    
V29      V      0.016160000000     0.016070000000     0.385920000000     1.38678    
V30      V      0.015020000000     0.014550000000     0.310460000000     1.37239    
V31      V      0.011910000000     0.012110000000     0.721420000000     1.38538    
V32      V      0.011210000000     0.010110000000     0.645980000000     1.37166    
V33      V      0.642930000000     0.022760000000     0.018120000000     1.38059    
V34      V      0.718430000000     0.020980000000     0.016990000000     1.3772     
V35      V      0.384520000000     0.006460000000     0.011160000000     1.38595    
V36      V      0.308760000000     0.012280000000     0.012220000000     1.38614    


