data_structure

_audit_creation_method RASPA-1.0
_audit_creation_date 2023-6-5
_audit_author_name 'Poobodin Mano'

_cell_length_a    34.7764
_cell_length_b    34.7656
_cell_length_c    41.3538
_cell_angle_alpha 89.9819
_cell_angle_beta  90.0182
_cell_angle_gamma 119.978
_cell_volume      43308.8

_symmetry_cell_setting          triclinic
_symmetry_space_group_name_Hall 'P 1'
_symmetry_space_group_name_H-M  'P 1'
_symmetry_Int_Tables_number     1

_symmetry_equiv_pos_as_xyz 'x,y,z'

loop_
_atom_site_label
_atom_site_type_symbol
_atom_site_fract_x
_atom_site_fract_y
_atom_site_fract_z
_atom_site_charge
Br1      Br     0.810470000000     0.951000000000     0.354750000000    -0.229437   
Br2      Br     0.989810000000     0.295480000000     0.290710000000    -0.215414   
Br3      Br     0.976410000000     0.630300000000     0.209340000000    -0.214426   
Br4      Br     0.657600000000     0.629850000000     0.462810000000    -0.217382   
Br5      Br     0.325050000000     0.960180000000     0.123360000000    -0.217536   
Br6      Br     0.523180000000     0.394510000000     0.040630000000    -0.17784    
Br7      Br     0.574030000000     0.745690000000     0.312390000000    -0.225659   
Br8      Br     0.575630000000     0.832580000000     0.061810000000    -0.223896   
Br9      Br     0.861970000000     0.808830000000     0.109800000000    -0.23148    
Br10     Br     0.486110000000     0.881030000000     0.168510000000    -0.171139   
Br11     Br     0.909870000000     0.506150000000     0.391250000000    -0.220268   
Br12     Br     0.903550000000     0.436680000000     0.067000000000    -0.229811   
Br13     Br     0.025790000000     0.655290000000     0.997990000000    -0.214367   
Br14     Br     0.388230000000     0.252610000000     0.406610000000    -0.182083   
Br15     Br     0.237020000000     0.159990000000     0.216090000000    -0.226852   
Br16     Br     0.531770000000     0.153830000000     0.263150000000    -0.232805   
Br17     Br     0.144690000000     0.530500000000     0.937530000000    -0.232745   
Br18     Br     0.355460000000     0.290070000000     0.379490000000    -0.182497   
Br19     Br     0.413300000000     0.509980000000     0.321680000000    -0.228082   
Br20     Br     0.561090000000     0.461030000000     0.071050000000    -0.177558   
Br21     Br     0.930440000000     0.166700000000     0.974370000000    -0.22597    
Br22     Br     0.843820000000     0.078800000000     0.223180000000    -0.224609   
Br23     Br     0.075180000000     0.249440000000     0.233400000000    -0.211261   
Br24     Br     0.135300000000     0.238520000000     0.057010000000    -0.229146   
Br25     Br     0.045910000000     0.366530000000     0.123710000000    -0.225298   
Br26     Br     0.375520000000     0.350300000000     0.211790000000    -0.217832   
Br27     Br     0.504250000000     0.914250000000     0.316980000000    -0.223194   
Br28     Br     0.450100000000     0.912140000000     0.138450000000    -0.17353    
Br29     Br     0.711130000000     0.019180000000     0.040500000000    -0.220944   
Br30     Br     0.239530000000     0.801960000000     0.233150000000    -0.223657   
Br31     Br     0.106400000000     0.872290000000     0.057600000000    -0.233387   
Br32     Br     0.379620000000     0.035570000000     0.953450000000    -0.228671   
Br33     Br     0.768170000000     0.569200000000     0.978140000000    -0.214443   
Br34     Br     0.837500000000     0.574750000000     0.154100000000    -0.21017    
Br35     Br     0.721650000000     0.528290000000     0.271020000000    -0.219387   
Br36     Br     0.046830000000     0.684540000000     0.374310000000    -0.209887   
Br37     Br     0.810470000000     0.951010000000     0.854750000000    -0.229453   
Br38     Br     0.989800000000     0.295480000000     0.790710000000    -0.215438   
Br39     Br     0.976410000000     0.630300000000     0.709340000000    -0.214436   
Br40     Br     0.657600000000     0.629840000000     0.962810000000    -0.217414   
Br41     Br     0.325050000000     0.960180000000     0.623360000000    -0.217544   
Br42     Br     0.523180000000     0.394520000000     0.540630000000    -0.177889   
Br43     Br     0.574030000000     0.745690000000     0.812390000000    -0.225659   
Br44     Br     0.575630000000     0.832580000000     0.561810000000    -0.223946   
Br45     Br     0.861980000000     0.808830000000     0.609800000000    -0.231484   
Br46     Br     0.486100000000     0.881030000000     0.668510000000    -0.17112    
Br47     Br     0.909870000000     0.506140000000     0.891250000000    -0.220292   
Br48     Br     0.903560000000     0.436680000000     0.567000000000    -0.229851   
Br49     Br     0.025790000000     0.655280000000     0.497990000000    -0.214266   
Br50     Br     0.388230000000     0.252610000000     0.906610000000    -0.182106   
Br51     Br     0.237020000000     0.159990000000     0.716090000000    -0.226845   
Br52     Br     0.531770000000     0.153830000000     0.763150000000    -0.232809   
Br53     Br     0.144690000000     0.530510000000     0.437530000000    -0.232712   
Br54     Br     0.355460000000     0.290070000000     0.879490000000    -0.182507   
Br55     Br     0.413300000000     0.509980000000     0.821670000000    -0.228028   
Br56     Br     0.561090000000     0.461020000000     0.571050000000    -0.177561   
Br57     Br     0.930440000000     0.166700000000     0.474370000000    -0.225916   
Br58     Br     0.843820000000     0.078800000000     0.723180000000    -0.224595   
Br59     Br     0.075180000000     0.249440000000     0.733400000000    -0.211247   
Br60     Br     0.135300000000     0.238520000000     0.557010000000    -0.22918    
Br61     Br     0.045910000000     0.366530000000     0.623710000000    -0.22531    
Br62     Br     0.375520000000     0.350290000000     0.711790000000    -0.217791   
Br63     Br     0.504250000000     0.914250000000     0.816980000000    -0.223208   
Br64     Br     0.450100000000     0.912140000000     0.638450000000    -0.17357    
Br65     Br     0.711130000000     0.019180000000     0.540500000000    -0.220975   
Br66     Br     0.239530000000     0.801960000000     0.733150000000    -0.223639   
Br67     Br     0.106400000000     0.872290000000     0.557600000000    -0.233437   
Br68     Br     0.379610000000     0.035570000000     0.453450000000    -0.228645   
Br69     Br     0.768170000000     0.569190000000     0.478140000000    -0.214357   
Br70     Br     0.837510000000     0.574760000000     0.654100000000    -0.210158   
Br71     Br     0.721650000000     0.528290000000     0.771020000000    -0.2194     
Br72     Br     0.046830000000     0.684540000000     0.874310000000    -0.209906   
C1       C      0.859190000000     0.671840000000     0.256000000000     0.481249   
C2       C      0.815510000000     0.664630000000     0.373900000000     0.480229   
C3       C      0.756930000000     0.629390000000     0.296480000000     0.491415   
C4       C      0.917990000000     0.706360000000     0.332460000000     0.480429   
C5       C      0.150400000000     0.820490000000     0.453640000000     0.48392    
C6       C      0.194310000000     0.854910000000     0.335850000000     0.481302   
C7       C      0.252810000000     0.882840000000     0.412390000000     0.4799     
C8       C      0.091590000000     0.792870000000     0.377360000000     0.492252   
C9       C      0.483290000000     0.005930000000     0.035950000000     0.481131   
C10      C      0.528110000000     0.012750000000     0.418380000000     0.478249   
C11      C      0.586230000000     0.045430000000     0.995650000000     0.477712   
C12      C      0.425440000000     0.973080000000     0.459160000000     0.490816   
C13      C      0.151120000000     0.340490000000     0.203180000000     0.496388   
C14      C      0.190970000000     0.337960000000     0.085650000000     0.490762   
C15      C      0.252870000000     0.376030000000     0.162020000000     0.478013   
C16      C      0.091200000000     0.303650000000     0.127770000000     0.495688   
C17      C      0.860200000000     0.190850000000     0.004650000000     0.493405   
C18      C      0.816830000000     0.152180000000     0.122290000000     0.480618   
C19      C      0.757280000000     0.127420000000     0.045630000000     0.489071   
C20      C      0.918600000000     0.215320000000     0.080970000000     0.482151   
C21      C      0.526920000000     0.521240000000     0.173150000000     0.479754   
C22      C      0.480650000000     0.482520000000     0.290340000000     0.495019   
C23      C      0.423220000000     0.458760000000     0.213250000000     0.491889   
C24      C      0.584110000000     0.544340000000     0.249950000000     0.479299   
C25      C      0.153610000000     0.344860000000     0.335240000000     0.481356   
C26      C      0.188410000000     0.334290000000     0.452900000000     0.478686   
C27      C      0.213210000000     0.301480000000     0.375310000000     0.479218   
C28      C      0.128870000000     0.377710000000     0.412350000000     0.479136   
C29      C      0.343060000000     0.161310000000     0.366540000000     0.493744   
C30      C      0.332550000000     0.191720000000     0.247950000000     0.495782   
C31      C      0.298950000000     0.216790000000     0.325820000000     0.494619   
C32      C      0.377860000000     0.134590000000     0.289960000000     0.479025   
C33      C      0.002700000000     0.525940000000     0.421330000000     0.497316   
C34      C      0.003260000000     0.483950000000     0.038670000000     0.492483   
C35      C      0.043070000000     0.463570000000     0.461210000000     0.490165   
C36      C      0.965220000000     0.546990000000     0.997210000000     0.49628    
C37      C      0.669380000000     0.856520000000     0.092930000000     0.493717   
C38      C      0.673200000000     0.817210000000     0.210670000000     0.478501   
C39      C      0.709360000000     0.793820000000     0.134220000000     0.477898   
C40      C      0.633190000000     0.879220000000     0.169070000000     0.48266    
C41      C      0.857560000000     0.667640000000     0.123760000000     0.494156   
C42      C      0.814990000000     0.668910000000     0.006610000000     0.492208   
C43      C      0.794880000000     0.708070000000     0.084660000000     0.489779   
C44      C      0.877850000000     0.630650000000     0.046940000000     0.484644   
C45      C      0.486880000000     0.008910000000     0.168280000000     0.492706   
C46      C      0.527060000000     0.007600000000     0.286020000000     0.492769   
C47      C      0.547430000000     0.968650000000     0.209720000000     0.493461   
C48      C      0.466290000000     0.049250000000     0.244790000000     0.489098   
C49      C      0.340010000000     0.145750000000     0.998390000000     0.485899   
C50      C      0.338200000000     0.186500000000     0.115670000000     0.4805     
C51      C      0.376060000000     0.246560000000     0.039840000000     0.480447   
C52      C      0.301920000000     0.085160000000     0.074530000000     0.480323   
C53      C      0.524920000000     0.521460000000     0.040870000000     0.491484   
C54      C      0.486220000000     0.482500000000     0.422680000000     0.482162   
C55      C      0.462880000000     0.421530000000     0.998800000000     0.493244   
C56      C      0.549360000000     0.583870000000     0.465630000000     0.489753   
C57      C      0.150060000000     0.816240000000     0.086030000000     0.494089   
C58      C      0.193160000000     0.854900000000     0.203500000000     0.493417   
C59      C      0.217160000000     0.915890000000     0.127290000000     0.492284   
C60      C      0.126270000000     0.754720000000     0.162290000000     0.482247   
C61      C      0.998450000000     0.481470000000     0.171390000000     0.480953   
C62      C      0.005860000000     0.525440000000     0.289200000000     0.48162    
C63      C      0.038290000000     0.583750000000     0.212350000000     0.491326   
C64      C      0.965440000000     0.422630000000     0.248360000000     0.478846   
C65      C      0.856840000000     0.190820000000     0.372370000000     0.480153   
C66      C      0.818440000000     0.147420000000     0.254720000000     0.492803   
C67      C      0.794810000000     0.088470000000     0.331250000000     0.479644   
C68      C      0.881550000000     0.250140000000     0.296010000000     0.488149   
C69      C      0.675310000000     0.860080000000     0.460440000000     0.479613   
C70      C      0.668720000000     0.814340000000     0.343100000000     0.492062   
C71      C      0.634280000000     0.757300000000     0.420080000000     0.480298   
C72      C      0.710680000000     0.917650000000     0.381980000000     0.489417   
C73      C      0.729810000000     0.025480000000     0.352630000000     0.033853   
C74      C      0.795250000000     0.022440000000     0.344840000000     0.00227199 
C75      C      0.709100000000     0.982420000000     0.365510000000     0.0397425  
C76      C      0.774960000000     0.979550000000     0.357600000000     0.15791    
C77      C      0.900670000000     0.356570000000     0.264820000000     0.0328173  
C78      C      0.969940000000     0.360060000000     0.267230000000     0.00218687 
C79      C      0.880250000000     0.313770000000     0.277480000000     0.0377847  
C80      C      0.949600000000     0.316720000000     0.279780000000     0.156721   
C81      C      0.124380000000     0.688280000000     0.178190000000     0.0359907  
C82      C      0.059620000000     0.693350000000     0.182940000000     0.00333654 
C83      C      0.102310000000     0.646020000000     0.191620000000     0.0404979  
C84      C      0.036810000000     0.650360000000     0.196150000000     0.158035   
C85      C      0.568950000000     0.691160000000     0.435880000000     0.0348913  
C86      C      0.638130000000     0.694500000000     0.438910000000     0.00196086 
C87      C      0.548240000000     0.648030000000     0.448050000000     0.0388869  
C88      C      0.617570000000     0.650970000000     0.450950000000     0.155369   
C89      C      0.236910000000     0.020210000000     0.091870000000     0.0348601  
C90      C      0.305980000000     0.023370000000     0.095650000000     0.00248693 
C91      C      0.216340000000     0.978490000000     0.106210000000     0.0408637  
C92      C      0.285410000000     0.980960000000     0.109770000000     0.156346   
C93      C      0.373580000000     0.309080000000     0.018050000000     0.0358352  
C94      C      0.442200000000     0.315090000000     0.031690000000     0.00396455 
C95      C      0.395790000000     0.353550000000     0.008040000000     0.0442574  
C96      C      0.464300000000     0.359740000000     0.022950000000     0.155338   
C97      C      0.710690000000     0.830870000000     0.261000000000     0.033578   
C98      C      0.633050000000     0.783900000000     0.258950000000    -0.000545011
C99      C      0.709260000000     0.828530000000     0.294670000000     0.0391435  
C100     C      0.631120000000     0.783490000000     0.292810000000     0.157962   
C101     C      0.712500000000     0.882590000000     0.011050000000     0.0360867  
C102     C      0.635090000000     0.853350000000     0.008640000000     0.00234164 
C103     C      0.710700000000     0.882940000000     0.044760000000     0.045172   
C104     C      0.632730000000     0.851180000000     0.042480000000     0.160247   
C105     C      0.707030000000     0.728270000000     0.113900000000     0.0326189  
C106     C      0.775610000000     0.794070000000     0.120270000000    -0.00112274 
C107     C      0.729040000000     0.707080000000     0.101380000000     0.0389492  
C108     C      0.797890000000     0.773290000000     0.107810000000     0.155771   
C109     C      0.635750000000     0.944280000000     0.190410000000     0.0356652  
C110     C      0.566880000000     0.881620000000     0.177360000000     0.00648266 
C111     C      0.613850000000     0.966750000000     0.200410000000     0.0438399  
C112     C      0.545010000000     0.904550000000     0.186000000000     0.157322   
C113     C      0.044570000000     0.549230000000     0.339230000000     0.0375393  
C114     C      0.967460000000     0.522210000000     0.337560000000     0.00295374 
C115     C      0.043630000000     0.551010000000     0.372920000000     0.0465858  
C116     C      0.965940000000     0.521670000000     0.371370000000     0.162142   
C117     C      0.037700000000     0.489400000000     0.122530000000     0.0388172  
C118     C      0.959950000000     0.457790000000     0.121430000000     0.00473633 
C119     C      0.038740000000     0.491300000000     0.088800000000     0.0440345  
C120     C      0.960430000000     0.457380000000     0.087590000000     0.157857   
C121     C      0.878440000000     0.565320000000     0.030590000000     0.0419058  
C122     C      0.943520000000     0.634900000000     0.025870000000     0.0049883  
C123     C      0.900480000000     0.544900000000     0.017190000000     0.0470395  
C124     C      0.966010000000     0.614710000000     0.012470000000     0.160784   
C125     C      0.314900000000     0.112090000000     0.447320000000     0.0410345  
C126     C      0.374290000000     0.185820000000     0.451740000000     0.00899205 
C127     C      0.315750000000     0.116540000000     0.413720000000     0.0434877  
C128     C      0.371110000000     0.192260000000     0.418740000000     0.152623   
C129     C      0.374740000000     0.213240000000     0.165910000000     0.0350701  
C130     C      0.296840000000     0.180070000000     0.163220000000     0.00158174 
C131     C      0.372940000000     0.216020000000     0.199400000000     0.0458176  
C132     C      0.294610000000     0.180310000000     0.197080000000     0.16083    
C133     C      0.377300000000     0.069010000000     0.271950000000     0.0335088  
C134     C      0.444850000000     0.136470000000     0.275490000000     0.000158804
C135     C      0.400040000000     0.048040000000     0.260520000000     0.0388588  
C136     C      0.467920000000     0.115890000000     0.264000000000     0.155981   
C137     C      0.063350000000     0.375580000000     0.432410000000     0.0339818  
C138     C      0.129470000000     0.444030000000     0.426700000000    -0.000204452
C139     C      0.042140000000     0.397670000000     0.444730000000     0.0398244  
C140     C      0.108670000000     0.466410000000     0.438970000000     0.156138   
C141     C      0.211710000000     0.241030000000     0.347770000000     0.034866   
C142     C      0.279900000000     0.299270000000     0.367210000000     0.00574259 
C143     C      0.233510000000     0.220140000000     0.334880000000     0.043155   
C144     C      0.301310000000     0.276310000000     0.356860000000     0.154081   
C145     C      0.498620000000     0.457960000000     0.372280000000     0.0370849  
C146     C      0.452370000000     0.489460000000     0.374740000000     0.00168875 
C147     C      0.495450000000     0.456510000000     0.338670000000     0.0441073  
C148     C      0.451130000000     0.490430000000     0.340880000000     0.160479   
C149     C      0.521220000000     0.553740000000     0.124120000000     0.0313404  
C150     C      0.552050000000     0.506850000000     0.123840000000     0.00398374 
C151     C      0.519050000000     0.552020000000     0.090390000000     0.0397121  
C152     C      0.551120000000     0.505880000000     0.090060000000     0.151749   
C153     C      0.842870000000     0.215000000000     0.422430000000     0.0317725  
C154     C      0.890850000000     0.185440000000     0.420730000000    -6.8894e-05 
C155     C      0.845350000000     0.216390000000     0.456080000000     0.0394628  
C156     C      0.891530000000     0.184510000000     0.454570000000     0.158309   
C157     C      0.793700000000     0.166010000000     0.172900000000     0.0325221  
C158     C      0.823620000000     0.118380000000     0.170270000000     0.000789919
C159     C      0.792760000000     0.163140000000     0.206550000000     0.0396577  
C160     C      0.825120000000     0.117410000000     0.204090000000     0.158867   
C161     C      0.170920000000     0.383300000000     0.285020000000     0.0343727  
C162     C      0.117860000000     0.306940000000     0.286930000000     0.00550546 
C163     C      0.168660000000     0.382080000000     0.251320000000     0.0429865  
C164     C      0.117340000000     0.305000000000     0.253160000000     0.162639   
C165     C      0.220500000000     0.372400000000     0.001950000000     0.0314822  
C166     C      0.172070000000     0.294980000000     0.002690000000     0.00104623 
C167     C      0.219860000000     0.373190000000     0.035650000000     0.0399184  
C168     C      0.173020000000     0.295140000000     0.036560000000     0.155898   
C169     C      0.984870000000     0.216690000000     0.096690000000     0.0382046  
C170     C      0.981190000000     0.282380000000     0.099710000000     0.00295719 
C171     C      0.027670000000     0.239000000000     0.109170000000     0.0461329  
C172     C      0.024630000000     0.305360000000     0.112030000000     0.160527   
C173     C      0.319310000000     0.440830000000     0.177920000000     0.0315293  
C174     C      0.313860000000     0.370910000000     0.183500000000     0.00106643 
C175     C      0.361430000000     0.460990000000     0.191750000000     0.0396246  
C176     C      0.356500000000     0.390960000000     0.197190000000     0.158214   
C177     C      0.551290000000     0.050510000000     0.367950000000     0.0328878  
C178     C      0.522810000000     0.973170000000     0.370190000000    -0.000962728
C179     C      0.552510000000     0.048980000000     0.334240000000     0.0386372  
C180     C      0.521620000000     0.971080000000     0.336380000000     0.156902   
C181     C      0.490040000000     0.044510000000     0.084980000000     0.0353362  
C182     C      0.458610000000     0.966730000000     0.085500000000     0.00849133 
C183     C      0.492610000000     0.045160000000     0.118700000000     0.0431266  
C184     C      0.459970000000     0.966910000000     0.119290000000     0.156768   
C185     C      0.652270000000     0.109680000000     0.012680000000     0.0309328  
C186     C      0.647860000000     0.039990000000     0.015450000000     0.000615419
C187     C      0.694630000000     0.129560000000     0.026000000000     0.036866   
C188     C      0.690800000000     0.059810000000     0.028660000000     0.156196   
C189     C      0.188830000000     0.886740000000     0.286520000000     0.0315964  
C190     C      0.218630000000     0.838950000000     0.286660000000     0.00157059 
C191     C      0.187590000000     0.885520000000     0.252850000000     0.0400976  
C192     C      0.219470000000     0.839220000000     0.252840000000     0.156854   
C193     C      0.154930000000     0.787020000000     0.002420000000     0.039145   
C194     C      0.126680000000     0.836120000000     0.003280000000     0.00386544 
C195     C      0.155770000000     0.787050000000     0.036080000000     0.044304   
C196     C      0.125360000000     0.834630000000     0.037090000000     0.158125   
C197     C      0.319460000000     0.885250000000     0.428280000000     0.0329094  
C198     C      0.315130000000     0.950620000000     0.430550000000     0.00105664 
C199     C      0.362300000000     0.908090000000     0.440570000000     0.0392208  
C200     C      0.358610000000     0.974130000000     0.442810000000     0.156199   
C201     C      0.821890000000     0.703570000000     0.422660000000     0.034763   
C202     C      0.790930000000     0.625880000000     0.423720000000     0.00565191 
C203     C      0.822830000000     0.704460000000     0.456420000000     0.0437086  
C204     C      0.789430000000     0.626170000000     0.457560000000     0.161304   
C205     C      0.881870000000     0.710020000000     0.205740000000     0.0362596  
C206     C      0.854940000000     0.632920000000     0.207660000000     0.00720733 
C207     C      0.883020000000     0.708790000000     0.172040000000     0.0417512  
C208     C      0.853670000000     0.631080000000     0.173840000000     0.163057   
C209     C      0.647880000000     0.609690000000     0.269980000000     0.0327661  
C210     C      0.650190000000     0.543750000000     0.262700000000     0.000665719
C211     C      0.691520000000     0.630680000000     0.281690000000     0.0395532  
C212     C      0.693690000000     0.564340000000     0.274180000000     0.157167   
C213     C      0.984250000000     0.772020000000     0.347150000000     0.0319594  
C214     C      0.981290000000     0.703040000000     0.350850000000     0.00295592 
C215     C      0.027440000000     0.793100000000     0.358960000000     0.0388439  
C216     C      0.024970000000     0.724020000000     0.362660000000     0.158449   
C217     C      0.859190000000     0.671840000000     0.756000000000     0.48127    
C218     C      0.815510000000     0.664630000000     0.873900000000     0.480077   
C219     C      0.756930000000     0.629390000000     0.796480000000     0.491654   
C220     C      0.917990000000     0.706360000000     0.832460000000     0.480814   
C221     C      0.150400000000     0.820490000000     0.953640000000     0.483933   
C222     C      0.194310000000     0.854910000000     0.835850000000     0.481304   
C223     C      0.252810000000     0.882840000000     0.912390000000     0.479888   
C224     C      0.091590000000     0.792870000000     0.877360000000     0.492243   
C225     C      0.483290000000     0.005930000000     0.535950000000     0.48114    
C226     C      0.528110000000     0.012750000000     0.918380000000     0.478334   
C227     C      0.586230000000     0.045430000000     0.495650000000     0.477753   
C228     C      0.425440000000     0.973080000000     0.959160000000     0.490956   
C229     C      0.151130000000     0.340490000000     0.703180000000     0.4964     
C230     C      0.190980000000     0.337960000000     0.585650000000     0.490821   
C231     C      0.252870000000     0.376030000000     0.662020000000     0.478064   
C232     C      0.091200000000     0.303650000000     0.627770000000     0.495678   
C233     C      0.860210000000     0.190850000000     0.504650000000     0.493385   
C234     C      0.816830000000     0.152180000000     0.622290000000     0.48051    
C235     C      0.757280000000     0.127420000000     0.545630000000     0.489199   
C236     C      0.918600000000     0.215320000000     0.580970000000     0.482159   
C237     C      0.526920000000     0.521240000000     0.673150000000     0.479743   
C238     C      0.480650000000     0.482520000000     0.790340000000     0.494751   
C239     C      0.423220000000     0.458750000000     0.713250000000     0.491622   
C240     C      0.584100000000     0.544340000000     0.749950000000     0.479341   
C241     C      0.153610000000     0.344860000000     0.835240000000     0.481355   
C242     C      0.188410000000     0.334290000000     0.952900000000     0.478698   
C243     C      0.213210000000     0.301480000000     0.875310000000     0.479216   
C244     C      0.128870000000     0.377710000000     0.912350000000     0.47913    
C245     C      0.343060000000     0.161320000000     0.866540000000     0.493686   
C246     C      0.332550000000     0.191710000000     0.747950000000     0.49581    
C247     C      0.298950000000     0.216790000000     0.825820000000     0.494627   
C248     C      0.377860000000     0.134590000000     0.789960000000     0.479034   
C249     C      0.002700000000     0.525940000000     0.921330000000     0.497297   
C250     C      0.003260000000     0.483940000000     0.538670000000     0.492637   
C251     C      0.043070000000     0.463580000000     0.961210000000     0.490205   
C252     C      0.965220000000     0.546990000000     0.497210000000     0.496224   
C253     C      0.669380000000     0.856530000000     0.592930000000     0.493693   
C254     C      0.673200000000     0.817220000000     0.710670000000     0.478261   
C255     C      0.709360000000     0.793820000000     0.634220000000     0.477898   
C256     C      0.633190000000     0.879230000000     0.669070000000     0.482594   
C257     C      0.857560000000     0.667640000000     0.623760000000     0.494254   
C258     C      0.814990000000     0.668910000000     0.506610000000     0.492021   
C259     C      0.794880000000     0.708070000000     0.584660000000     0.489752   
C260     C      0.877850000000     0.630650000000     0.546940000000     0.484566   
C261     C      0.486880000000     0.008910000000     0.668280000000     0.492969   
C262     C      0.527060000000     0.007600000000     0.786020000000     0.492734   
C263     C      0.547430000000     0.968650000000     0.709720000000     0.493345   
C264     C      0.466280000000     0.049250000000     0.744790000000     0.489033   
C265     C      0.340010000000     0.145750000000     0.498390000000     0.486046   
C266     C      0.338200000000     0.186500000000     0.615670000000     0.480537   
C267     C      0.376060000000     0.246560000000     0.539840000000     0.480426   
C268     C      0.301920000000     0.085160000000     0.574530000000     0.480326   
C269     C      0.524920000000     0.521460000000     0.540870000000     0.491635   
C270     C      0.486220000000     0.482500000000     0.922680000000     0.481981   
C271     C      0.462880000000     0.421530000000     0.498800000000     0.493199   
C272     C      0.549360000000     0.583880000000     0.965630000000     0.489571   
C273     C      0.150050000000     0.816240000000     0.586040000000     0.494161   
C274     C      0.193160000000     0.854900000000     0.703490000000     0.493664   
C275     C      0.217160000000     0.915890000000     0.627290000000     0.492448   
C276     C      0.126270000000     0.754720000000     0.662290000000     0.482089   
C277     C      0.998450000000     0.481470000000     0.671390000000     0.480851   
C278     C      0.005860000000     0.525440000000     0.789200000000     0.481631   
C279     C      0.038290000000     0.583760000000     0.712350000000     0.491198   
C280     C      0.965440000000     0.422630000000     0.748360000000     0.478926   
C281     C      0.856840000000     0.190820000000     0.872370000000     0.480138   
C282     C      0.818440000000     0.147420000000     0.754720000000     0.492818   
C283     C      0.794810000000     0.088470000000     0.831250000000     0.479673   
C284     C      0.881550000000     0.250140000000     0.796010000000     0.488386   
C285     C      0.675310000000     0.860080000000     0.960440000000     0.479608   
C286     C      0.668720000000     0.814340000000     0.843090000000     0.491882   
C287     C      0.634280000000     0.757300000000     0.920080000000     0.480113   
C288     C      0.710680000000     0.917650000000     0.881980000000     0.489547   
C289     C      0.729810000000     0.025480000000     0.852620000000     0.0339096  
C290     C      0.795250000000     0.022440000000     0.844840000000     0.00224103 
C291     C      0.709090000000     0.982420000000     0.865510000000     0.0396457  
C292     C      0.774960000000     0.979560000000     0.857600000000     0.157929   
C293     C      0.900670000000     0.356570000000     0.764820000000     0.0328126  
C294     C      0.969940000000     0.360060000000     0.767230000000     0.00217242 
C295     C      0.880250000000     0.313770000000     0.777480000000     0.0377968  
C296     C      0.949600000000     0.316720000000     0.779780000000     0.156763   
C297     C      0.124380000000     0.688280000000     0.678190000000     0.0359899  
C298     C      0.059620000000     0.693350000000     0.682940000000     0.00331548 
C299     C      0.102310000000     0.646020000000     0.691620000000     0.0404936  
C300     C      0.036810000000     0.650360000000     0.696150000000     0.158081   
C301     C      0.568950000000     0.691160000000     0.935880000000     0.0348888  
C302     C      0.638130000000     0.694490000000     0.938910000000     0.0018728  
C303     C      0.548240000000     0.648030000000     0.948050000000     0.0389218  
C304     C      0.617570000000     0.650970000000     0.950960000000     0.155378   
C305     C      0.236910000000     0.020210000000     0.591870000000     0.0348543  
C306     C      0.305980000000     0.023370000000     0.595650000000     0.00247998 
C307     C      0.216340000000     0.978490000000     0.606210000000     0.0408672  
C308     C      0.285410000000     0.980960000000     0.609770000000     0.15635    
C309     C      0.373580000000     0.309080000000     0.518050000000     0.0358733  
C310     C      0.442200000000     0.315090000000     0.531680000000     0.0040138  
C311     C      0.395790000000     0.353550000000     0.508040000000     0.0441156  
C312     C      0.464300000000     0.359740000000     0.522960000000     0.155303   
C313     C      0.710680000000     0.830860000000     0.761000000000     0.0336443  
C314     C      0.633050000000     0.783900000000     0.758950000000    -0.00055444 
C315     C      0.709260000000     0.828520000000     0.794670000000     0.0391204  
C316     C      0.631120000000     0.783480000000     0.792810000000     0.15797    
C317     C      0.712500000000     0.882600000000     0.511050000000     0.0359038  
C318     C      0.635090000000     0.853350000000     0.508640000000     0.002154   
C319     C      0.710700000000     0.882940000000     0.544760000000     0.0452322  
C320     C      0.632730000000     0.851170000000     0.542480000000     0.160294   
C321     C      0.707030000000     0.728270000000     0.613900000000     0.0326284  
C322     C      0.775610000000     0.794070000000     0.620270000000    -0.00112716 
C323     C      0.729040000000     0.707080000000     0.601380000000     0.0389245  
C324     C      0.797890000000     0.773290000000     0.607810000000     0.15577    
C325     C      0.635740000000     0.944280000000     0.690410000000     0.0356952  
C326     C      0.566880000000     0.881620000000     0.677360000000     0.0065266  
C327     C      0.613850000000     0.966750000000     0.700410000000     0.0438137  
C328     C      0.545010000000     0.904560000000     0.686000000000     0.157318   
C329     C      0.044570000000     0.549230000000     0.839230000000     0.0375363  
C330     C      0.967460000000     0.522210000000     0.837560000000     0.00291187 
C331     C      0.043630000000     0.551010000000     0.872930000000     0.0466196  
C332     C      0.965940000000     0.521670000000     0.871370000000     0.162167   
C333     C      0.037700000000     0.489400000000     0.622530000000     0.0388105  
C334     C      0.959950000000     0.457790000000     0.621430000000     0.00471339 
C335     C      0.038740000000     0.491300000000     0.588800000000     0.0440374  
C336     C      0.960430000000     0.457380000000     0.587590000000     0.157904   
C337     C      0.878430000000     0.565320000000     0.530590000000     0.0418809  
C338     C      0.943520000000     0.634900000000     0.525870000000     0.00498826 
C339     C      0.900480000000     0.544900000000     0.517190000000     0.0470439  
C340     C      0.966010000000     0.614710000000     0.512470000000     0.160726   
C341     C      0.314900000000     0.112090000000     0.947320000000     0.0410191  
C342     C      0.374290000000     0.185820000000     0.951740000000     0.00898125 
C343     C      0.315750000000     0.116540000000     0.913720000000     0.0434865  
C344     C      0.371110000000     0.192260000000     0.918740000000     0.15261    
C345     C      0.374740000000     0.213240000000     0.665910000000     0.0350724  
C346     C      0.296840000000     0.180070000000     0.663220000000     0.00158528 
C347     C      0.372940000000     0.216020000000     0.699400000000     0.0458134  
C348     C      0.294610000000     0.180310000000     0.697080000000     0.16083    
C349     C      0.377300000000     0.069010000000     0.771950000000     0.0335135  
C350     C      0.444850000000     0.136470000000     0.775490000000     0.000141876
C351     C      0.400040000000     0.048040000000     0.760510000000     0.0388648  
C352     C      0.467920000000     0.115890000000     0.764010000000     0.155986   
C353     C      0.063340000000     0.375580000000     0.932410000000     0.0339181  
C354     C      0.129470000000     0.444030000000     0.926700000000    -0.000216198
C355     C      0.042130000000     0.397670000000     0.944720000000     0.0398371  
C356     C      0.108670000000     0.466410000000     0.938970000000     0.156159   
C357     C      0.211710000000     0.241030000000     0.847770000000     0.0348624  
C358     C      0.279900000000     0.299270000000     0.867210000000     0.00571366 
C359     C      0.233510000000     0.220140000000     0.834880000000     0.0431566  
C360     C      0.301310000000     0.276310000000     0.856860000000     0.154089   
C361     C      0.498620000000     0.457950000000     0.872280000000     0.0369852  
C362     C      0.452370000000     0.489460000000     0.874740000000     0.00164948 
C363     C      0.495450000000     0.456510000000     0.838670000000     0.0441441  
C364     C      0.451130000000     0.490430000000     0.840890000000     0.160422   
C365     C      0.521220000000     0.553750000000     0.624120000000     0.0312544  
C366     C      0.552050000000     0.506850000000     0.623840000000     0.00402392 
C367     C      0.519050000000     0.552020000000     0.590390000000     0.0397532  
C368     C      0.551120000000     0.505880000000     0.590060000000     0.151706   
C369     C      0.842870000000     0.215000000000     0.922430000000     0.0318009  
C370     C      0.890850000000     0.185440000000     0.920730000000    -7.95232e-05
C371     C      0.845350000000     0.216390000000     0.956080000000     0.0393694  
C372     C      0.891530000000     0.184510000000     0.954570000000     0.15836    
C373     C      0.793700000000     0.166010000000     0.672900000000     0.0325162  
C374     C      0.823620000000     0.118380000000     0.670270000000     0.000764186
C375     C      0.792760000000     0.163140000000     0.706550000000     0.0396615  
C376     C      0.825110000000     0.117410000000     0.704090000000     0.158894   
C377     C      0.170920000000     0.383300000000     0.785020000000     0.0343556  
C378     C      0.117860000000     0.306940000000     0.786930000000     0.00550392 
C379     C      0.168660000000     0.382080000000     0.751320000000     0.0429886  
C380     C      0.117340000000     0.305000000000     0.753160000000     0.162642   
C381     C      0.220500000000     0.372400000000     0.501950000000     0.0312815  
C382     C      0.172070000000     0.294980000000     0.502690000000     0.000849484
C383     C      0.219860000000     0.373190000000     0.535650000000     0.0399797  
C384     C      0.173020000000     0.295140000000     0.536560000000     0.155962   
C385     C      0.984860000000     0.216690000000     0.596690000000     0.0382849  
C386     C      0.981190000000     0.282380000000     0.599710000000     0.0029576  
C387     C      0.027670000000     0.239000000000     0.609170000000     0.0460942  
C388     C      0.024630000000     0.305360000000     0.612030000000     0.160519   
C389     C      0.319310000000     0.440830000000     0.677930000000     0.0315303  
C390     C      0.313860000000     0.370910000000     0.683500000000     0.00112579 
C391     C      0.361430000000     0.460990000000     0.691750000000     0.0396209  
C392     C      0.356500000000     0.390960000000     0.697190000000     0.158143   
C393     C      0.551290000000     0.050510000000     0.867950000000     0.0328981  
C394     C      0.522810000000     0.973170000000     0.870190000000    -0.000912475
C395     C      0.552510000000     0.048980000000     0.834240000000     0.0386193  
C396     C      0.521620000000     0.971070000000     0.836380000000     0.15687    
C397     C      0.490040000000     0.044520000000     0.584980000000     0.0352573  
C398     C      0.458610000000     0.966730000000     0.585500000000     0.00849383 
C399     C      0.492600000000     0.045160000000     0.618700000000     0.0431599  
C400     C      0.459970000000     0.966900000000     0.619290000000     0.156758   
C401     C      0.652270000000     0.109680000000     0.512680000000     0.0309161  
C402     C      0.647860000000     0.039990000000     0.515450000000     0.000603795
C403     C      0.694630000000     0.129560000000     0.526000000000     0.0368623  
C404     C      0.690800000000     0.059810000000     0.528660000000     0.156198   
C405     C      0.188830000000     0.886740000000     0.786520000000     0.0316012  
C406     C      0.218630000000     0.838950000000     0.786660000000     0.00157245 
C407     C      0.187590000000     0.885520000000     0.752850000000     0.0400862  
C408     C      0.219470000000     0.839220000000     0.752840000000     0.156854   
C409     C      0.154930000000     0.787020000000     0.502420000000     0.0389113  
C410     C      0.126680000000     0.836120000000     0.503280000000     0.00366412 
C411     C      0.155760000000     0.787050000000     0.536080000000     0.044432   
C412     C      0.125360000000     0.834640000000     0.537090000000     0.158146   
C413     C      0.319460000000     0.885240000000     0.928280000000     0.0327733  
C414     C      0.315130000000     0.950610000000     0.930550000000     0.00116718 
C415     C      0.362300000000     0.908090000000     0.940570000000     0.0392301  
C416     C      0.358610000000     0.974130000000     0.942810000000     0.156209   
C417     C      0.821890000000     0.703570000000     0.922660000000     0.0347677  
C418     C      0.790930000000     0.625880000000     0.923720000000     0.00562343 
C419     C      0.822830000000     0.704460000000     0.956420000000     0.0437014  
C420     C      0.789430000000     0.626180000000     0.957560000000     0.161349   
C421     C      0.881870000000     0.710020000000     0.705740000000     0.036254   
C422     C      0.854940000000     0.632920000000     0.707660000000     0.00718614 
C423     C      0.883020000000     0.708790000000     0.672040000000     0.0417571  
C424     C      0.853670000000     0.631090000000     0.673840000000     0.163104   
C425     C      0.647880000000     0.609690000000     0.769980000000     0.0327458  
C426     C      0.650190000000     0.543750000000     0.762700000000     0.000604984
C427     C      0.691520000000     0.630680000000     0.781690000000     0.0395666  
C428     C      0.693690000000     0.564340000000     0.774170000000     0.157183   
C429     C      0.984240000000     0.772020000000     0.847150000000     0.0319275  
C430     C      0.981290000000     0.703040000000     0.850850000000     0.0030142  
C431     C      0.027440000000     0.793100000000     0.858960000000     0.0388618  
C432     C      0.024970000000     0.724010000000     0.862660000000     0.158411   
H1       H      0.674970000000     0.968220000000     0.373500000000     0.0428023  
H2       H      0.710820000000     0.042420000000     0.351170000000     0.0416494  
H3       H      0.829220000000     0.036720000000     0.336440000000     0.0726807  
H4       H      0.844550000000     0.297250000000     0.280720000000     0.0397113  
H5       H      0.879790000000     0.370720000000     0.259430000000     0.0430599  
H6       H      0.005640000000     0.377680000000     0.263820000000     0.0685059  
H7       H      0.121180000000     0.629050000000     0.194130000000     0.0415835  
H8       H      0.158950000000     0.701640000000     0.171660000000     0.048747   
H9       H      0.041940000000     0.711500000000     0.180230000000     0.0678128  
H10      H      0.512470000000     0.631330000000     0.450840000000     0.0412249  
H11      H      0.548280000000     0.705520000000     0.430400000000     0.0456548  
H12      H      0.673920000000     0.712150000000     0.436020000000     0.0657661  
H13      H      0.180650000000     0.962360000000     0.109380000000     0.0504329  
H14      H      0.216190000000     0.034170000000     0.085390000000     0.0449702  
H15      H      0.341690000000     0.040600000000     0.092310000000     0.0667315  
H16      H      0.376200000000     0.367190000000     0.998230000000     0.0404753  
H17      H      0.337710000000     0.290370000000     0.016020000000     0.0449641  
H18      H      0.461740000000     0.301890000000     0.042290000000     0.0672496  
H19      H      0.740330000000     0.847230000000     0.307670000000     0.0462985  
H20      H      0.742750000000     0.850480000000     0.249460000000     0.0431287  
H21      H      0.602280000000     0.765480000000     0.245570000000     0.0645006  
H22      H      0.741520000000     0.894570000000     0.057960000000     0.0402539  
H23      H      0.744600000000     0.894650000000     0.999650000000     0.0440445  
H24      H      0.604520000000     0.841790000000     0.995140000000     0.0636329  
H25      H      0.708950000000     0.672650000000     0.094080000000     0.0448654  
H26      H      0.671160000000     0.709270000000     0.115840000000     0.0419186  
H27      H      0.795410000000     0.828380000000     0.127950000000     0.0670301  
H28      H      0.633760000000     0.000070000000     0.209970000000     0.0410965  
H29      H      0.671640000000     0.961410000000     0.192260000000     0.0462418  
H30      H      0.547260000000     0.848810000000     0.166890000000     0.0722716  
H31      H      0.074520000000     0.562040000000     0.385900000000     0.0485394  
H32      H      0.076220000000     0.559840000000     0.327530000000     0.0444067  
H33      H      0.936720000000     0.511170000000     0.324390000000     0.0667032  
H34      H      0.070780000000     0.505400000000     0.076910000000     0.0405764  
H35      H      0.069040000000     0.502800000000     0.135300000000     0.0424017  
H36      H      0.928290000000     0.445150000000     0.133650000000     0.0674049  
H37      H      0.881740000000     0.509060000000     0.014680000000     0.0555747  
H38      H      0.843840000000     0.544430000000     0.037180000000     0.0566854  
H39      H      0.961470000000     0.670750000000     0.028420000000     0.0697618  
H40      H      0.292770000000     0.087950000000     0.399570000000     0.0388509  
H41      H      0.290560000000     0.080980000000     0.458300000000     0.0352082  
H42      H      0.395210000000     0.214570000000     0.466640000000     0.0558348  
H43      H      0.404070000000     0.230220000000     0.212550000000     0.0411398  
H44      H      0.407040000000     0.226170000000     0.154640000000     0.0429285  
H45      H      0.266130000000     0.166030000000     0.149570000000     0.0647232  
H46      H      0.380480000000     0.012960000000     0.254840000000     0.0454975  
H47      H      0.341570000000     0.049210000000     0.274650000000     0.0420207  
H48      H      0.463930000000     0.171500000000     0.281460000000     0.0678395  
H49      H      0.007560000000     0.377660000000     0.451660000000     0.0428862  
H50      H      0.044200000000     0.339730000000     0.430260000000     0.046387   
H51      H      0.163930000000     0.463750000000     0.419390000000     0.0663531  
H52      H      0.213890000000     0.189580000000     0.321480000000     0.045561   
H53      H      0.176170000000     0.225560000000     0.344000000000     0.0430816  
H54      H      0.298540000000     0.329180000000     0.381510000000     0.0634959  
H55      H      0.513540000000     0.443560000000     0.325540000000     0.0416111  
H56      H      0.518180000000     0.445280000000     0.383650000000     0.0471122  
H57      H      0.434500000000     0.502290000000     0.388290000000     0.0630355  
H58      H      0.505480000000     0.570180000000     0.078080000000     0.0354153  
H59      H      0.508240000000     0.572280000000     0.136590000000     0.0379216  
H60      H      0.563710000000     0.487200000000     0.136400000000     0.0670763  
H61      H      0.826300000000     0.228460000000     0.468970000000     0.0362908  
H62      H      0.822800000000     0.226830000000     0.410750000000     0.0393479  
H63      H      0.909690000000     0.173430000000     0.407510000000     0.0662101  
H64      H      0.780680000000     0.181890000000     0.219830000000     0.0357263  
H65      H      0.781580000000     0.186070000000     0.161600000000     0.0397907  
H66      H      0.835630000000     0.099810000000     0.156690000000     0.066194   
H67      H      0.189820000000     0.412540000000     0.238230000000     0.0367601  
H68      H      0.193020000000     0.414740000000     0.296630000000     0.0419851  
H69      H      0.096810000000     0.276630000000     0.300200000000     0.0696694  
H70      H      0.238870000000     0.405040000000     0.047650000000     0.0356546  
H71      H      0.239410000000     0.403780000000     0.989380000000     0.0391603  
H72      H      0.152070000000     0.263590000000     0.990340000000     0.0662705  
H73      H      0.044300000000     0.219850000000     0.112030000000     0.0547604  
H74      H      0.970780000000     0.181720000000     0.091100000000     0.0499845  
H75      H      0.963440000000     0.300420000000     0.096650000000     0.0678865  
H76      H      0.378630000000     0.496850000000     0.194060000000     0.0409629  
H77      H      0.306150000000     0.462050000000     0.170880000000     0.040178   
H78      H      0.295630000000     0.335050000000     0.181070000000     0.0703089  
H79      H      0.564000000000     0.079800000000     0.321040000000     0.0432242  
H80      H      0.562680000000     0.082470000000     0.379410000000     0.0412771  
H81      H      0.511310000000     0.942520000000     0.383590000000     0.0637536  
H82      H      0.506570000000     0.076970000000     0.130920000000     0.0376903  
H83      H      0.503080000000     0.075980000000     0.072430000000     0.0395854  
H84      H      0.446600000000     0.935300000000     0.073040000000     0.0681869  
H85      H      0.711380000000     0.165270000000     0.029280000000     0.0390046  
H86      H      0.638640000000     0.130920000000     0.006910000000     0.0399893  
H87      H      0.629990000000     0.004290000000     0.011990000000     0.0687852  
H88      H      0.174530000000     0.904100000000     0.240490000000     0.0370594  
H89      H      0.176030000000     0.905600000000     0.298770000000     0.0377552  
H90      H      0.230440000000     0.819550000000     0.299390000000     0.0666228  
H91      H      0.168070000000     0.767530000000     0.048040000000     0.0405259  
H92      H      0.167210000000     0.767980000000     0.989800000000     0.0451758  
H93      H      0.115690000000     0.856500000000     0.990970000000     0.0646338  
H94      H      0.379110000000     0.889150000000     0.443690000000     0.0419964  
H95      H      0.305660000000     0.850220000000     0.423030000000     0.0427397  
H96      H      0.297110000000     0.968320000000     0.427190000000     0.0632071  
H97      H      0.836440000000     0.736440000000     0.468350000000     0.0389829  
H98      H      0.835410000000     0.734940000000     0.409920000000     0.0391837  
H99      H      0.778850000000     0.594300000000     0.411480000000     0.0702848  
H100     H      0.893830000000     0.739600000000     0.158990000000     0.0468991  
H101     H      0.892680000000     0.741780000000     0.217340000000     0.0417089  
H102     H      0.844110000000     0.602290000000     0.220940000000     0.0750888  
H103     H      0.706220000000     0.665110000000     0.289080000000     0.0410182  
H104     H      0.631020000000     0.628780000000     0.268720000000     0.0440352  
H105     H      0.635360000000     0.509430000000     0.254950000000     0.0690692  
H106     H      0.043890000000     0.828920000000     0.361350000000     0.038829   
H107     H      0.969740000000     0.792510000000     0.341470000000     0.0400294  
H108     H      0.963750000000     0.667200000000     0.348270000000     0.072695   
H109     H      0.674970000000     0.968220000000     0.873500000000     0.0428208  
H110     H      0.710820000000     0.042420000000     0.851170000000     0.0416286  
H111     H      0.829220000000     0.036720000000     0.836440000000     0.0726943  
H112     H      0.844550000000     0.297250000000     0.780720000000     0.0397001  
H113     H      0.879790000000     0.370720000000     0.759440000000     0.0430548  
H114     H      0.005640000000     0.377680000000     0.763820000000     0.0685033  
H115     H      0.121180000000     0.629050000000     0.694130000000     0.0415784  
H116     H      0.158950000000     0.701640000000     0.671660000000     0.0487548  
H117     H      0.041940000000     0.711500000000     0.680230000000     0.0678204  
H118     H      0.512470000000     0.631330000000     0.950840000000     0.0412018  
H119     H      0.548280000000     0.705520000000     0.930400000000     0.04566    
H120     H      0.673920000000     0.712140000000     0.936020000000     0.0657908  
H121     H      0.180650000000     0.962360000000     0.609380000000     0.050428   
H122     H      0.216190000000     0.034170000000     0.585390000000     0.0449661  
H123     H      0.341690000000     0.040600000000     0.592310000000     0.066728   
H124     H      0.376200000000     0.367190000000     0.498230000000     0.0405597  
H125     H      0.337710000000     0.290370000000     0.516020000000     0.0449337  
H126     H      0.461750000000     0.301890000000     0.542300000000     0.0672186  
H127     H      0.740330000000     0.847230000000     0.807670000000     0.046294   
H128     H      0.742750000000     0.850480000000     0.749460000000     0.0431182  
H129     H      0.602280000000     0.765480000000     0.745570000000     0.0645003  
H130     H      0.741520000000     0.894580000000     0.557970000000     0.040239   
H131     H      0.744600000000     0.894650000000     0.499650000000     0.0441427  
H132     H      0.604520000000     0.841790000000     0.495140000000     0.0637309  
H133     H      0.708950000000     0.672650000000     0.594080000000     0.0448651  
H134     H      0.671160000000     0.709270000000     0.615840000000     0.0419142  
H135     H      0.795410000000     0.828380000000     0.627950000000     0.0670264  
H136     H      0.633760000000     0.000070000000     0.709970000000     0.0411024  
H137     H      0.671640000000     0.961410000000     0.692260000000     0.0462306  
H138     H      0.547260000000     0.848810000000     0.666890000000     0.0722518  
H139     H      0.074520000000     0.562040000000     0.885900000000     0.0485197  
H140     H      0.076220000000     0.559840000000     0.827540000000     0.0443989  
H141     H      0.936730000000     0.511170000000     0.824390000000     0.0667179  
H142     H      0.070780000000     0.505410000000     0.576910000000     0.0405508  
H143     H      0.069040000000     0.502800000000     0.635300000000     0.0424009  
H144     H      0.928290000000     0.445150000000     0.633650000000     0.0674074  
H145     H      0.881740000000     0.509060000000     0.514680000000     0.0555494  
H146     H      0.843840000000     0.544430000000     0.537180000000     0.0566781  
H147     H      0.961460000000     0.670750000000     0.528420000000     0.0697456  
H148     H      0.292770000000     0.087950000000     0.899570000000     0.0388449  
H149     H      0.290560000000     0.080980000000     0.958300000000     0.035195   
H150     H      0.395210000000     0.214570000000     0.966640000000     0.0558117  
H151     H      0.404070000000     0.230220000000     0.712550000000     0.0411398  
H152     H      0.407040000000     0.226170000000     0.654640000000     0.0429265  
H153     H      0.266130000000     0.166030000000     0.649570000000     0.0647225  
H154     H      0.380480000000     0.012960000000     0.754840000000     0.0454905  
H155     H      0.341570000000     0.049210000000     0.774650000000     0.04202    
H156     H      0.463930000000     0.171500000000     0.781460000000     0.0678437  
H157     H      0.007560000000     0.377650000000     0.951660000000     0.0428725  
H158     H      0.044200000000     0.339730000000     0.930250000000     0.0464069  
H159     H      0.163930000000     0.463750000000     0.919390000000     0.066357   
H160     H      0.213890000000     0.189580000000     0.821480000000     0.0455598  
H161     H      0.176170000000     0.225560000000     0.844000000000     0.0430808  
H162     H      0.298540000000     0.329180000000     0.881500000000     0.0635031  
H163     H      0.513540000000     0.443560000000     0.825540000000     0.0416075  
H164     H      0.518170000000     0.445280000000     0.883650000000     0.0471428  
H165     H      0.434500000000     0.502290000000     0.888290000000     0.0630416  
H166     H      0.505480000000     0.570180000000     0.578080000000     0.0353895  
H167     H      0.508240000000     0.572280000000     0.636590000000     0.0379432  
H168     H      0.563710000000     0.487190000000     0.636400000000     0.0670625  
H169     H      0.826300000000     0.228460000000     0.968970000000     0.0362815  
H170     H      0.822800000000     0.226830000000     0.910750000000     0.0393322  
H171     H      0.909690000000     0.173430000000     0.907500000000     0.0662107  
H172     H      0.780680000000     0.181890000000     0.719830000000     0.0357246  
H173     H      0.781580000000     0.186070000000     0.661600000000     0.0397901  
H174     H      0.835630000000     0.099810000000     0.656690000000     0.066192   
H175     H      0.189820000000     0.412540000000     0.738230000000     0.0367612  
H176     H      0.193020000000     0.414730000000     0.796630000000     0.0419929  
H177     H      0.096810000000     0.276630000000     0.800200000000     0.0696693  
H178     H      0.238870000000     0.405040000000     0.547650000000     0.0356117  
H179     H      0.239410000000     0.403780000000     0.489380000000     0.0392573  
H180     H      0.152070000000     0.263590000000     0.490340000000     0.0663719  
H181     H      0.044300000000     0.219850000000     0.612030000000     0.0547669  
H182     H      0.970790000000     0.181720000000     0.591100000000     0.0499431  
H183     H      0.963440000000     0.300420000000     0.596650000000     0.0678781  
H184     H      0.378630000000     0.496850000000     0.694060000000     0.0409675  
H185     H      0.306150000000     0.462050000000     0.670880000000     0.0401793  
H186     H      0.295630000000     0.335040000000     0.681070000000     0.070286   
H187     H      0.564000000000     0.079800000000     0.821040000000     0.0432267  
H188     H      0.562680000000     0.082470000000     0.879410000000     0.0412655  
H189     H      0.511310000000     0.942510000000     0.883590000000     0.063729   
H190     H      0.506570000000     0.076970000000     0.630920000000     0.0376834  
H191     H      0.503080000000     0.075980000000     0.572430000000     0.0395953  
H192     H      0.446600000000     0.935300000000     0.573040000000     0.0681749  
H193     H      0.711380000000     0.165270000000     0.529280000000     0.0389855  
H194     H      0.638640000000     0.130920000000     0.506920000000     0.0399603  
H195     H      0.629990000000     0.004290000000     0.511990000000     0.068765   
H196     H      0.174530000000     0.904100000000     0.740490000000     0.0370552  
H197     H      0.176030000000     0.905600000000     0.798770000000     0.0377539  
H198     H      0.230440000000     0.819550000000     0.799390000000     0.0666235  
H199     H      0.168070000000     0.767530000000     0.548050000000     0.04049    
H200     H      0.167210000000     0.767980000000     0.489790000000     0.0452921  
H201     H      0.115690000000     0.856500000000     0.490980000000     0.0647338  
H202     H      0.379110000000     0.889150000000     0.943690000000     0.0419884  
H203     H      0.305660000000     0.850220000000     0.923030000000     0.04277    
H204     H      0.297110000000     0.968320000000     0.927190000000     0.0631629  
H205     H      0.836440000000     0.736440000000     0.968350000000     0.0389663  
H206     H      0.835410000000     0.734950000000     0.909920000000     0.0391706  
H207     H      0.778860000000     0.594300000000     0.911480000000     0.0702828  
H208     H      0.893830000000     0.739600000000     0.658990000000     0.0468904  
H209     H      0.892680000000     0.741780000000     0.717340000000     0.0417122  
H210     H      0.844110000000     0.602290000000     0.720940000000     0.0750956  
H211     H      0.706220000000     0.665110000000     0.789080000000     0.0410157  
H212     H      0.631020000000     0.628780000000     0.768720000000     0.0440465  
H213     H      0.635360000000     0.509440000000     0.754950000000     0.0690956  
H214     H      0.043890000000     0.828920000000     0.861350000000     0.0388211  
H215     H      0.969740000000     0.792510000000     0.841470000000     0.04003    
H216     H      0.963750000000     0.667200000000     0.848260000000     0.0726729  
N1       N      0.773070000000     0.045610000000     0.342660000000    -0.179444   
N2       N      0.731700000000     0.959600000000     0.368680000000    -0.201384   
N3       N      0.945510000000     0.379830000000     0.259780000000    -0.180289   
N4       N      0.904180000000     0.293260000000     0.284790000000    -0.200998   
N5       N      0.103250000000     0.712140000000     0.174030000000    -0.179837   
N6       N      0.058460000000     0.626470000000     0.200450000000    -0.201039   
N7       N      0.613870000000     0.714410000000     0.431310000000    -0.180166   
N8       N      0.572060000000     0.627340000000     0.455250000000    -0.20125    
N9       N      0.281740000000     0.042850000000     0.086810000000    -0.181083   
N10      N      0.240070000000     0.958290000000     0.114940000000    -0.200707   
N11      N      0.396950000000     0.289930000000     0.029680000000    -0.180181   
N12      N      0.441140000000     0.378590000000     0.009910000000    -0.200994   
N13      N      0.672420000000     0.809820000000     0.243260000000    -0.181126   
N14      N      0.669380000000     0.807480000000     0.310540000000    -0.202578   
N15      N      0.674500000000     0.866380000000     0.993100000000    -0.179941   
N16      N      0.670650000000     0.864460000000     0.060400000000    -0.202052   
N17      N      0.730380000000     0.771910000000     0.123020000000    -0.180986   
N18      N      0.774320000000     0.729580000000     0.097660000000    -0.20178    
N19      N      0.612160000000     0.901610000000     0.179140000000    -0.178863   
N20      N      0.568510000000     0.946680000000     0.198780000000    -0.200164   
N21      N      0.006170000000     0.533150000000     0.321720000000    -0.179498   
N22      N      0.003990000000     0.534180000000     0.388900000000    -0.201248   
N23      N      0.998570000000     0.475050000000     0.138720000000    -0.179865   
N24      N      0.000410000000     0.476260000000     0.071320000000    -0.20199    
N25      N      0.899940000000     0.610300000000     0.034920000000    -0.178185   
N26      N      0.944400000000     0.569150000000     0.008510000000    -0.199164   
N27      N      0.344860000000     0.146440000000     0.465860000000    -0.182001   
N28      N      0.343830000000     0.156590000000     0.399420000000    -0.201035   
N29      N      0.336610000000     0.194030000000     0.147990000000    -0.180494   
N30      N      0.332910000000     0.196920000000     0.215100000000    -0.20221    
N31      N      0.399750000000     0.113260000000     0.279320000000    -0.180703   
N32      N      0.445260000000     0.071250000000     0.256140000000    -0.201245   
N33      N      0.107110000000     0.398830000000     0.423650000000    -0.180217   
N34      N      0.064740000000     0.442950000000     0.448600000000    -0.202156   
N35      N      0.235020000000     0.280950000000     0.363280000000    -0.180883   
N36      N      0.278330000000     0.238040000000     0.338870000000    -0.200359   
N37      N      0.478340000000     0.475820000000     0.390160000000    -0.180162   
N38      N      0.474390000000     0.475500000000     0.322960000000    -0.202741   
N39      N      0.534870000000     0.528640000000     0.140690000000    -0.181667   
N40      N      0.532650000000     0.527070000000     0.073460000000    -0.201705   
N41      N      0.864290000000     0.197980000000     0.404910000000    -0.180814   
N42      N      0.866990000000     0.198290000000     0.472120000000    -0.203853   
N43      N      0.810480000000     0.144790000000     0.154890000000    -0.18056    
N44      N      0.811150000000     0.141390000000     0.222110000000    -0.203456   
N45      N      0.146800000000     0.345330000000     0.302670000000    -0.179921   
N46      N      0.144440000000     0.342460000000     0.235540000000    -0.203534   
N47      N      0.194580000000     0.333670000000     0.985580000000    -0.181142   
N48      N      0.195450000000     0.334920000000     0.052980000000    -0.203112   
N49      N      0.961480000000     0.238220000000     0.092100000000    -0.179498   
N50      N      0.048110000000     0.283370000000     0.116680000000    -0.199365   
N51      N      0.295360000000     0.395790000000     0.173970000000    -0.180661   
N52      N      0.380590000000     0.436540000000     0.201170000000    -0.200828   
N53      N      0.534990000000     0.012370000000     0.385780000000    -0.181031   
N54      N      0.534870000000     0.009040000000     0.318540000000    -0.203248   
N55      N      0.475840000000     0.005610000000     0.068500000000    -0.180257   
N56      N      0.478840000000     0.006680000000     0.135740000000    -0.200475   
N57      N      0.628740000000     0.064910000000     0.007520000000    -0.181031   
N58      N      0.714490000000     0.105150000000     0.033830000000    -0.201757   
N59      N      0.201710000000     0.861190000000     0.303280000000    -0.181838   
N60      N      0.201480000000     0.860720000000     0.236010000000    -0.203256   
N61      N      0.142960000000     0.813700000000     0.986180000000    -0.180481   
N62      N      0.142280000000     0.811750000000     0.053440000000    -0.202943   
N63      N      0.295710000000     0.906320000000     0.423410000000    -0.181458   
N64      N      0.382430000000     0.952540000000     0.447810000000    -0.20119    
N65      N      0.808380000000     0.664570000000     0.406480000000    -0.180011   
N66      N      0.807640000000     0.666080000000     0.473900000000    -0.200928   
N67      N      0.866260000000     0.671800000000     0.223410000000    -0.179269   
N68      N      0.865970000000     0.669020000000     0.156180000000    -0.202134   
N69      N      0.627190000000     0.566100000000     0.260770000000    -0.180606   
N70      N      0.714370000000     0.608050000000     0.284360000000    -0.20205    
N71      N      0.961080000000     0.727020000000     0.343180000000    -0.180557   
N72      N      0.048330000000     0.769600000000     0.366610000000    -0.20164    
N73      N      0.773070000000     0.045610000000     0.842650000000    -0.179478   
N74      N      0.731700000000     0.959600000000     0.868680000000    -0.201381   
N75      N      0.945510000000     0.379830000000     0.759780000000    -0.180305   
N76      N      0.904180000000     0.293260000000     0.784790000000    -0.201046   
N77      N      0.103250000000     0.712140000000     0.674030000000    -0.179798   
N78      N      0.058460000000     0.626480000000     0.700450000000    -0.201056   
N79      N      0.613870000000     0.714420000000     0.931310000000    -0.180152   
N80      N      0.572060000000     0.627350000000     0.955250000000    -0.201263   
N81      N      0.281740000000     0.042850000000     0.586810000000    -0.181084   
N82      N      0.240070000000     0.958290000000     0.614940000000    -0.200737   
N83      N      0.396950000000     0.289930000000     0.529680000000    -0.180199   
N84      N      0.441140000000     0.378580000000     0.509910000000    -0.200953   
N85      N      0.672420000000     0.809820000000     0.743270000000    -0.181026   
N86      N      0.669380000000     0.807480000000     0.810540000000    -0.202631   
N87      N      0.674500000000     0.866380000000     0.493100000000    -0.179825   
N88      N      0.670650000000     0.864460000000     0.560400000000    -0.20209    
N89      N      0.730380000000     0.771910000000     0.623020000000    -0.180986   
N90      N      0.774320000000     0.729590000000     0.597660000000    -0.201743   
N91      N      0.612160000000     0.901610000000     0.679140000000    -0.178935   
N92      N      0.568510000000     0.946680000000     0.698780000000    -0.200159   
N93      N      0.006170000000     0.533150000000     0.821720000000    -0.17949    
N94      N      0.003990000000     0.534180000000     0.888900000000    -0.201262   
N95      N      0.998570000000     0.475050000000     0.638720000000    -0.179841   
N96      N      0.000410000000     0.476260000000     0.571320000000    -0.202043   
N97      N      0.899940000000     0.610300000000     0.534920000000    -0.178171   
N98      N      0.944400000000     0.569150000000     0.508510000000    -0.199182   
N99      N      0.344860000000     0.146440000000     0.965860000000    -0.181985   
N100     N      0.343830000000     0.156590000000     0.899420000000    -0.20102    
N101     N      0.336610000000     0.194030000000     0.647990000000    -0.1805     
N102     N      0.332910000000     0.196920000000     0.715100000000    -0.202203   
N103     N      0.399750000000     0.113260000000     0.779320000000    -0.180701   
N104     N      0.445260000000     0.071250000000     0.756140000000    -0.201289   
N105     N      0.107110000000     0.398830000000     0.923650000000    -0.180198   
N106     N      0.064740000000     0.442950000000     0.948600000000    -0.202106   
N107     N      0.235020000000     0.280950000000     0.863280000000    -0.180878   
N108     N      0.278330000000     0.238040000000     0.838870000000    -0.200363   
N109     N      0.478340000000     0.475820000000     0.890160000000    -0.180096   
N110     N      0.474390000000     0.475500000000     0.822960000000    -0.202663   
N111     N      0.534870000000     0.528640000000     0.640690000000    -0.181648   
N112     N      0.532650000000     0.527070000000     0.573460000000    -0.201746   
N113     N      0.864290000000     0.197980000000     0.904910000000    -0.18082    
N114     N      0.867000000000     0.198290000000     0.972120000000    -0.203882   
N115     N      0.810480000000     0.144790000000     0.654890000000    -0.180546   
N116     N      0.811150000000     0.141390000000     0.722110000000    -0.203473   
N117     N      0.146800000000     0.345330000000     0.802670000000    -0.179918   
N118     N      0.144440000000     0.342460000000     0.735540000000    -0.203519   
N119     N      0.194580000000     0.333670000000     0.485580000000    -0.181018   
N120     N      0.195450000000     0.334920000000     0.552980000000    -0.203157   
N121     N      0.961480000000     0.238220000000     0.592100000000    -0.179528   
N122     N      0.048110000000     0.283370000000     0.616680000000    -0.199357   
N123     N      0.295360000000     0.395790000000     0.673970000000    -0.180681   
N124     N      0.380590000000     0.436540000000     0.701170000000    -0.20077    
N125     N      0.534990000000     0.012370000000     0.885780000000    -0.18106    
N126     N      0.534880000000     0.009040000000     0.818540000000    -0.203205   
N127     N      0.475840000000     0.005610000000     0.568500000000    -0.180239   
N128     N      0.478850000000     0.006680000000     0.635740000000    -0.200515   
N129     N      0.628740000000     0.064910000000     0.507520000000    -0.181068   
N130     N      0.714490000000     0.105150000000     0.533830000000    -0.201786   
N131     N      0.201710000000     0.861190000000     0.803280000000    -0.181839   
N132     N      0.201480000000     0.860720000000     0.736010000000    -0.203203   
N133     N      0.142960000000     0.813700000000     0.486180000000    -0.180349   
N134     N      0.142280000000     0.811750000000     0.553440000000    -0.202893   
N135     N      0.295710000000     0.906330000000     0.923410000000    -0.181444   
N136     N      0.382430000000     0.952550000000     0.947810000000    -0.201224   
N137     N      0.808380000000     0.664570000000     0.906490000000    -0.179933   
N138     N      0.807640000000     0.666080000000     0.973900000000    -0.201023   
N139     N      0.866260000000     0.671800000000     0.723410000000    -0.179269   
N140     N      0.865970000000     0.669020000000     0.656180000000    -0.202186   
N141     N      0.627190000000     0.566100000000     0.760770000000    -0.180536   
N142     N      0.714370000000     0.608050000000     0.784360000000    -0.202088   
N143     N      0.961070000000     0.727010000000     0.843180000000    -0.180671   
N144     N      0.048330000000     0.769600000000     0.866610000000    -0.201615   
O1       O      0.851850000000     0.638060000000     0.273260000000    -0.543618   
O2       O      0.817870000000     0.632110000000     0.361200000000    -0.547618   
O3       O      0.775330000000     0.606780000000     0.304420000000    -0.540431   
O4       O      0.895720000000     0.663820000000     0.330170000000    -0.55018    
O5       O      0.899760000000     0.729650000000     0.325410000000    -0.550935   
O6       O      0.778540000000     0.671980000000     0.299530000000    -0.546397   
O7       O      0.822970000000     0.698470000000     0.356690000000    -0.548839   
O8       O      0.856670000000     0.704280000000     0.268670000000    -0.548882   
O9       O      0.159000000000     0.794490000000     0.437030000000    -0.550172   
O10      O      0.192950000000     0.820920000000     0.349270000000    -0.552842   
O11      O      0.235680000000     0.841270000000     0.406000000000    -0.55653    
O12      O      0.115050000000     0.773940000000     0.380160000000    -0.530217   
O13      O      0.108990000000     0.834480000000     0.383680000000    -0.55809    
O14      O      0.229560000000     0.902030000000     0.409280000000    -0.550481   
O15      O      0.185500000000     0.880950000000     0.352290000000    -0.553786   
O16      O      0.151910000000     0.854710000000     0.440400000000    -0.550275   
O17      O      0.484870000000     0.973030000000     0.023160000000    -0.549899   
O18      O      0.519760000000     0.978660000000     0.435620000000    -0.553331   
O19      O      0.563030000000     0.002950000000     0.992930000000    -0.549815   
O20      O      0.442990000000     0.949220000000     0.466220000000    -0.559781   
O21      O      0.448600000000     0.015550000000     0.461720000000    -0.526441   
O22      O      0.569260000000     0.069750000000     0.988250000000    -0.552569   
O23      O      0.526690000000     0.045790000000     0.431070000000    -0.547007   
O24      O      0.492300000000     0.040400000000     0.018960000000    -0.545611   
O25      O      0.151840000000     0.306510000000     0.191770000000    -0.537929   
O26      O      0.183750000000     0.305530000000     0.104290000000    -0.537261   
O27      O      0.229050000000     0.333420000000     0.160830000000    -0.547937   
O28      O      0.108220000000     0.279550000000     0.135610000000    -0.544746   
O29      O      0.115060000000     0.346160000000     0.128990000000    -0.527912   
O30      O      0.236400000000     0.400300000000     0.153320000000    -0.554794   
O31      O      0.191470000000     0.372580000000     0.097160000000    -0.550685   
O32      O      0.161000000000     0.374290000000     0.185130000000    -0.548671   
O33      O      0.858370000000     0.156090000000     0.017010000000    -0.534623   
O34      O      0.824890000000     0.126530000000     0.104740000000    -0.548841   
O35      O      0.780510000000     0.108140000000     0.047790000000    -0.529572   
O36      O      0.901310000000     0.174010000000     0.073670000000    -0.547859   
O37      O      0.895480000000     0.234770000000     0.078730000000    -0.547199   
O38      O      0.774750000000     0.168680000000     0.053160000000    -0.558266   
O39      O      0.818010000000     0.186690000000     0.109890000000    -0.550454   
O40      O      0.851110000000     0.216020000000     0.021930000000    -0.553243   
O41      O      0.524260000000     0.486170000000     0.185740000000    -0.552171   
O42      O      0.489080000000     0.456830000000     0.273140000000    -0.552244   
O43      O      0.445910000000     0.439040000000     0.215920000000    -0.534122   
O44      O      0.565980000000     0.503050000000     0.242530000000    -0.559616   
O45      O      0.561800000000     0.564690000000     0.247750000000    -0.542735   
O46      O      0.441120000000     0.500220000000     0.220470000000    -0.546269   
O47      O      0.483100000000     0.517510000000     0.277830000000    -0.530938   
O48      O      0.518620000000     0.547130000000     0.190220000000    -0.550285   
O49      O      0.189100000000     0.376360000000     0.348120000000    -0.549587   
O50      O      0.214650000000     0.368900000000     0.436370000000    -0.553283   
O51      O      0.234300000000     0.343720000000     0.379880000000    -0.545938   
O52      O      0.170150000000     0.400830000000     0.404720000000    -0.553789   
O53      O      0.108460000000     0.335110000000     0.410110000000    -0.544888   
O54      O      0.171390000000     0.278350000000     0.381160000000    -0.552151   
O55      O      0.154320000000     0.301680000000     0.439460000000    -0.547895   
O56      O      0.126290000000     0.311280000000     0.352230000000    -0.548814   
O57      O      0.374840000000     0.195500000000     0.352790000000    -0.540687   
O58      O      0.366600000000     0.218910000000     0.264580000000    -0.555897   
O59      O      0.341140000000     0.238130000000     0.321450000000    -0.533729   
O60      O      0.400200000000     0.176240000000     0.296570000000    -0.557947   
O61      O      0.335280000000     0.113330000000     0.292630000000    -0.545232   
O62      O      0.276000000000     0.175390000000     0.318400000000    -0.544006   
O63      O      0.300760000000     0.156950000000     0.261310000000    -0.530859   
O64      O      0.310120000000     0.132350000000     0.349750000000    -0.548756   
O65      O      0.036400000000     0.550730000000     0.439210000000    -0.540302   
O66      O      0.036930000000     0.519030000000     0.027200000000    -0.54953    
O67      O      0.065500000000     0.503880000000     0.470780000000    -0.541839   
O68      O      0.007700000000     0.566770000000     0.995640000000    -0.534521   
O69      O      0.942040000000     0.505640000000     0.989630000000    -0.537135   
O70      O      0.000330000000     0.442830000000     0.462930000000    -0.546135   
O71      O      0.971310000000     0.457900000000     0.020030000000    -0.535635   
O72      O      0.969620000000     0.490680000000     0.432930000000    -0.53758    
O73      O      0.702950000000     0.882040000000     0.110670000000    -0.549861   
O74      O      0.706360000000     0.851890000000     0.198400000000    -0.551842   
O75      O      0.732580000000     0.835090000000     0.141830000000    -0.555129   
O76      O      0.675850000000     0.899200000000     0.167690000000    -0.545906   
O77      O      0.609930000000     0.838090000000     0.161160000000    -0.54523    
O78      O      0.666750000000     0.773630000000     0.136200000000    -0.548302   
O79      O      0.639570000000     0.791490000000     0.193010000000    -0.548302   
O80      O      0.636640000000     0.821180000000     0.104870000000    -0.532781   
O81      O      0.882260000000     0.701380000000     0.105860000000    -0.545713   
O82      O      0.849940000000     0.702620000000     0.018160000000    -0.55021    
O83      O      0.835120000000     0.730650000000     0.074980000000    -0.54067    
O84      O      0.897940000000     0.673230000000     0.048970000000    -0.551457   
O85      O      0.836790000000     0.607250000000     0.055130000000    -0.534584   
O86      O      0.774140000000     0.665340000000     0.082660000000    -0.543384   
O87      O      0.789030000000     0.636780000000     0.025190000000    -0.529985   
O88      O      0.822240000000     0.634560000000     0.112200000000    -0.535027   
O89      O      0.522320000000     0.042060000000     0.179840000000    -0.547119   
O90      O      0.552630000000     0.040950000000     0.268100000000    -0.547241   
O91      O      0.568790000000     0.011270000000     0.211960000000    -0.547864   
O92      O      0.507010000000     0.071190000000     0.235960000000    -0.534663   
O93      O      0.445240000000     0.006510000000     0.243370000000    -0.548445   
O94      O      0.506330000000     0.946430000000     0.217810000000    -0.527079   
O95      O      0.491630000000     0.974850000000     0.274280000000    -0.536964   
O96      O      0.460340000000     0.976930000000     0.186760000000    -0.530901   
O97      O      0.305440000000     0.145280000000     0.009790000000    -0.548757   
O98      O      0.305250000000     0.178620000000     0.097250000000    -0.546804   
O99      O      0.333390000000     0.223090000000     0.040190000000    -0.544524   
O100     O      0.278060000000     0.102330000000     0.066450000000    -0.553502   
O101     O      0.344510000000     0.108180000000     0.072570000000    -0.549879   
O102     O      0.399660000000     0.229510000000     0.048830000000    -0.556831   
O103     O      0.371740000000     0.184770000000     0.104390000000    -0.554305   
O104     O      0.373520000000     0.155050000000     0.016470000000    -0.549112   
O105     O      0.490260000000     0.520540000000     0.029030000000    -0.548007   
O106     O      0.460790000000     0.490520000000     0.440550000000    -0.547106   
O107     O      0.442470000000     0.443770000000     0.996510000000    -0.543972   
O108     O      0.508020000000     0.566000000000     0.473150000000    -0.551327   
O109     O      0.568560000000     0.560550000000     0.466570000000    -0.535006   
O110     O      0.503900000000     0.439420000000     0.990810000000    -0.537649   
O111     O      0.520830000000     0.483590000000     0.434720000000    -0.55228    
O112     O      0.550980000000     0.514970000000     0.022620000000    -0.532003   
O113     O      0.125550000000     0.824330000000     0.104720000000    -0.536035   
O114     O      0.159170000000     0.855680000000     0.192110000000    -0.556202   
O115     O      0.176370000000     0.899750000000     0.135780000000    -0.549783   
O116     O      0.107860000000     0.778900000000     0.161130000000    -0.546397   
O117     O      0.166930000000     0.770820000000     0.153640000000    -0.550654   
O118     O      0.235200000000     0.891500000000     0.128530000000    -0.531804   
O119     O      0.217450000000     0.846290000000     0.184930000000    -0.531923   
O120     O      0.183920000000     0.815110000000     0.097370000000    -0.553874   
O121     O      0.965420000000     0.482600000000     0.184350000000    -0.546975   
O122     O      0.971600000000     0.517020000000     0.272160000000    -0.546946   
O123     O      0.995900000000     0.560580000000     0.214990000000    -0.529157   
O124     O      0.941430000000     0.440030000000     0.241370000000    -0.553879   
O125     O      0.007960000000     0.445570000000     0.245520000000    -0.544835   
O126     O      0.062260000000     0.566290000000     0.219460000000    -0.555422   
O127     O      0.038570000000     0.523560000000     0.276390000000    -0.549592   
O128     O      0.032690000000     0.489800000000     0.188410000000    -0.548084   
O129     O      0.822260000000     0.189280000000     0.359900000000    -0.552409   
O130     O      0.792790000000     0.155520000000     0.272230000000    -0.554042   
O131     O      0.774770000000     0.111120000000     0.329340000000    -0.543484   
O132     O      0.840060000000     0.232290000000     0.303130000000    -0.552558   
O133     O      0.900950000000     0.227090000000     0.298260000000    -0.5313     
O134     O      0.835950000000     0.106290000000     0.323420000000    -0.550626   
O135     O      0.853470000000     0.149650000000     0.266950000000    -0.531896   
O136     O      0.882510000000     0.182530000000     0.354990000000    -0.548208   
O137     O      0.641750000000     0.852660000000     0.442890000000    -0.547964   
O138     O      0.636240000000     0.817060000000     0.355380000000    -0.53066    
O139     O      0.610840000000     0.775220000000     0.412640000000    -0.543529   
O140     O      0.668110000000     0.895910000000     0.385110000000    -0.543464   
O141     O      0.733520000000     0.899810000000     0.390760000000    -0.538571   
O142     O      0.676820000000     0.779720000000     0.417660000000    -0.552376   
O143     O      0.702770000000     0.822840000000     0.360440000000    -0.549882   
O144     O      0.708080000000     0.857930000000     0.448040000000    -0.550119   
O145     O      0.851850000000     0.638060000000     0.773260000000    -0.543672   
O146     O      0.817870000000     0.632110000000     0.861190000000    -0.547751   
O147     O      0.775330000000     0.606790000000     0.804420000000    -0.540632   
O148     O      0.895720000000     0.663820000000     0.830160000000    -0.550374   
O149     O      0.899760000000     0.729640000000     0.825410000000    -0.55122    
O150     O      0.778540000000     0.671980000000     0.799530000000    -0.546332   
O151     O      0.822970000000     0.698470000000     0.856690000000    -0.54874    
O152     O      0.856670000000     0.704280000000     0.768670000000    -0.548907   
O153     O      0.159000000000     0.794490000000     0.937030000000    -0.550182   
O154     O      0.192950000000     0.820920000000     0.849270000000    -0.552841   
O155     O      0.235680000000     0.841270000000     0.906000000000    -0.556532   
O156     O      0.115050000000     0.773940000000     0.880160000000    -0.530215   
O157     O      0.108990000000     0.834480000000     0.883680000000    -0.558091   
O158     O      0.229560000000     0.902030000000     0.909280000000    -0.55048    
O159     O      0.185500000000     0.880950000000     0.852290000000    -0.553786   
O160     O      0.151910000000     0.854710000000     0.940400000000    -0.550294   
O161     O      0.484870000000     0.973030000000     0.523160000000    -0.549977   
O162     O      0.519750000000     0.978660000000     0.935620000000    -0.553409   
O163     O      0.563030000000     0.002950000000     0.492930000000    -0.549805   
O164     O      0.442980000000     0.949220000000     0.966220000000    -0.559766   
O165     O      0.448600000000     0.015550000000     0.961720000000    -0.526467   
O166     O      0.569260000000     0.069750000000     0.488240000000    -0.552574   
O167     O      0.526690000000     0.045790000000     0.931070000000    -0.547025   
O168     O      0.492300000000     0.040400000000     0.518960000000    -0.545694   
O169     O      0.151840000000     0.306510000000     0.691770000000    -0.537941   
O170     O      0.183750000000     0.305530000000     0.604280000000    -0.537195   
O171     O      0.229050000000     0.333420000000     0.660830000000    -0.547941   
O172     O      0.108220000000     0.279550000000     0.635610000000    -0.544705   
O173     O      0.115060000000     0.346160000000     0.628990000000    -0.527896   
O174     O      0.236400000000     0.400300000000     0.653330000000    -0.554807   
O175     O      0.191470000000     0.372580000000     0.597160000000    -0.550683   
O176     O      0.161000000000     0.374290000000     0.685130000000    -0.548631   
O177     O      0.858370000000     0.156090000000     0.517010000000    -0.534868   
O178     O      0.824890000000     0.126530000000     0.604730000000    -0.548791   
O179     O      0.780510000000     0.108140000000     0.547780000000    -0.529617   
O180     O      0.901310000000     0.174010000000     0.573670000000    -0.547854   
O181     O      0.895480000000     0.234770000000     0.578730000000    -0.54724    
O182     O      0.774760000000     0.168680000000     0.553160000000    -0.558455   
O183     O      0.818010000000     0.186690000000     0.609890000000    -0.550428   
O184     O      0.851110000000     0.216020000000     0.521930000000    -0.553228   
O185     O      0.524260000000     0.486170000000     0.685740000000    -0.552158   
O186     O      0.489080000000     0.456830000000     0.773140000000    -0.552169   
O187     O      0.445910000000     0.439030000000     0.715920000000    -0.534033   
O188     O      0.565980000000     0.503050000000     0.742530000000    -0.559608   
O189     O      0.561800000000     0.564690000000     0.747750000000    -0.542823   
O190     O      0.441120000000     0.500220000000     0.720470000000    -0.546104   
O191     O      0.483100000000     0.517520000000     0.777830000000    -0.530762   
O192     O      0.518620000000     0.547130000000     0.690220000000    -0.55027    
O193     O      0.189100000000     0.376360000000     0.848120000000    -0.549586   
O194     O      0.214650000000     0.368900000000     0.936370000000    -0.553296   
O195     O      0.234300000000     0.343720000000     0.879880000000    -0.545939   
O196     O      0.170150000000     0.400830000000     0.904720000000    -0.55379    
O197     O      0.108460000000     0.335110000000     0.910110000000    -0.54489    
O198     O      0.171390000000     0.278350000000     0.881160000000    -0.552153   
O199     O      0.154320000000     0.301680000000     0.939460000000    -0.54791    
O200     O      0.126290000000     0.311280000000     0.852230000000    -0.548813   
O201     O      0.374840000000     0.195500000000     0.852790000000    -0.540702   
O202     O      0.366600000000     0.218910000000     0.764580000000    -0.555865   
O203     O      0.341140000000     0.238130000000     0.821450000000    -0.533722   
O204     O      0.400200000000     0.176240000000     0.796570000000    -0.557939   
O205     O      0.335280000000     0.113330000000     0.792630000000    -0.545263   
O206     O      0.276000000000     0.175390000000     0.818400000000    -0.544046   
O207     O      0.300760000000     0.156950000000     0.761310000000    -0.530967   
O208     O      0.310120000000     0.132350000000     0.849740000000    -0.548828   
O209     O      0.036400000000     0.550730000000     0.939210000000    -0.540287   
O210     O      0.036920000000     0.519030000000     0.527200000000    -0.549648   
O211     O      0.065500000000     0.503880000000     0.970780000000    -0.541926   
O212     O      0.007700000000     0.566770000000     0.495640000000    -0.53446    
O213     O      0.942040000000     0.505630000000     0.489630000000    -0.537147   
O214     O      0.000330000000     0.442830000000     0.962930000000    -0.546105   
O215     O      0.971310000000     0.457900000000     0.520030000000    -0.535789   
O216     O      0.969620000000     0.490680000000     0.932930000000    -0.537528   
O217     O      0.702950000000     0.882040000000     0.610670000000    -0.549882   
O218     O      0.706370000000     0.851890000000     0.698400000000    -0.551757   
O219     O      0.732580000000     0.835090000000     0.641830000000    -0.555109   
O220     O      0.675850000000     0.899200000000     0.667690000000    -0.5459     
O221     O      0.609930000000     0.838090000000     0.661160000000    -0.545131   
O222     O      0.666750000000     0.773630000000     0.636200000000    -0.548285   
O223     O      0.639570000000     0.791490000000     0.693010000000    -0.54821    
O224     O      0.636640000000     0.821180000000     0.604870000000    -0.532716   
O225     O      0.882250000000     0.701370000000     0.605860000000    -0.545861   
O226     O      0.849950000000     0.702620000000     0.518160000000    -0.550202   
O227     O      0.835120000000     0.730650000000     0.574980000000    -0.540806   
O228     O      0.897940000000     0.673230000000     0.548960000000    -0.55129    
O229     O      0.836790000000     0.607250000000     0.555130000000    -0.534429   
O230     O      0.774140000000     0.665340000000     0.582660000000    -0.54349    
O231     O      0.789030000000     0.636780000000     0.525190000000    -0.529968   
O232     O      0.822240000000     0.634550000000     0.612200000000    -0.534925   
O233     O      0.522310000000     0.042060000000     0.679840000000    -0.547201   
O234     O      0.552630000000     0.040950000000     0.768100000000    -0.547225   
O235     O      0.568790000000     0.011270000000     0.711960000000    -0.547857   
O236     O      0.507010000000     0.071190000000     0.735960000000    -0.534536   
O237     O      0.445240000000     0.006510000000     0.743370000000    -0.548379   
O238     O      0.506330000000     0.946420000000     0.717810000000    -0.526907   
O239     O      0.491630000000     0.974850000000     0.774280000000    -0.53693    
O240     O      0.460340000000     0.976940000000     0.686760000000    -0.530991   
O241     O      0.305440000000     0.145280000000     0.509790000000    -0.5487     
O242     O      0.305250000000     0.178620000000     0.597250000000    -0.546959   
O243     O      0.333390000000     0.223090000000     0.540190000000    -0.544483   
O244     O      0.278060000000     0.102330000000     0.566450000000    -0.553551   
O245     O      0.344510000000     0.108180000000     0.572570000000    -0.549887   
O246     O      0.399660000000     0.229510000000     0.548830000000    -0.556831   
O247     O      0.371740000000     0.184770000000     0.604390000000    -0.554325   
O248     O      0.373520000000     0.155050000000     0.516470000000    -0.549193   
O249     O      0.490260000000     0.520540000000     0.529020000000    -0.548258   
O250     O      0.460790000000     0.490520000000     0.940550000000    -0.547004   
O251     O      0.442470000000     0.443770000000     0.496510000000    -0.543983   
O252     O      0.508020000000     0.566000000000     0.973150000000    -0.551269   
O253     O      0.568560000000     0.560550000000     0.966570000000    -0.534869   
O254     O      0.503900000000     0.439420000000     0.490800000000    -0.537661   
O255     O      0.520830000000     0.483580000000     0.934720000000    -0.552142   
O256     O      0.550980000000     0.514980000000     0.522620000000    -0.532167   
O257     O      0.125550000000     0.824330000000     0.604720000000    -0.536402   
O258     O      0.159170000000     0.855670000000     0.692110000000    -0.556282   
O259     O      0.176370000000     0.899750000000     0.635780000000    -0.549912   
O260     O      0.107860000000     0.778900000000     0.661130000000    -0.546346   
O261     O      0.166930000000     0.770810000000     0.653640000000    -0.55038    
O262     O      0.235200000000     0.891510000000     0.628530000000    -0.531743   
O263     O      0.217450000000     0.846290000000     0.684940000000    -0.531871   
O264     O      0.183920000000     0.815110000000     0.597370000000    -0.55376    
O265     O      0.965420000000     0.482610000000     0.684350000000    -0.546938   
O266     O      0.971600000000     0.517020000000     0.772160000000    -0.546954   
O267     O      0.995900000000     0.560580000000     0.714990000000    -0.529112   
O268     O      0.941430000000     0.440030000000     0.741370000000    -0.5539     
O269     O      0.007960000000     0.445580000000     0.745520000000    -0.544995   
O270     O      0.062260000000     0.566290000000     0.719460000000    -0.555335   
O271     O      0.038570000000     0.523560000000     0.776390000000    -0.54961    
O272     O      0.032690000000     0.489800000000     0.688410000000    -0.548081   
O273     O      0.822260000000     0.189280000000     0.859900000000    -0.552424   
O274     O      0.792790000000     0.155520000000     0.772230000000    -0.554073   
O275     O      0.774770000000     0.111120000000     0.829340000000    -0.543513   
O276     O      0.840070000000     0.232290000000     0.803130000000    -0.552729   
O277     O      0.900950000000     0.227090000000     0.798250000000    -0.531268   
O278     O      0.835950000000     0.106290000000     0.823420000000    -0.550594   
O279     O      0.853470000000     0.149650000000     0.766940000000    -0.531724   
O280     O      0.882510000000     0.182530000000     0.854990000000    -0.548166   
O281     O      0.641750000000     0.852660000000     0.942890000000    -0.547974   
O282     O      0.636240000000     0.817060000000     0.855380000000    -0.530572   
O283     O      0.610830000000     0.775220000000     0.912640000000    -0.543387   
O284     O      0.668110000000     0.895910000000     0.885110000000    -0.543511   
O285     O      0.733520000000     0.899820000000     0.890760000000    -0.538543   
O286     O      0.676820000000     0.779720000000     0.917660000000    -0.552273   
O287     O      0.702770000000     0.822830000000     0.860440000000    -0.549661   
O288     O      0.708080000000     0.857930000000     0.948040000000    -0.550084   
V1       V      0.835120000000     0.632670000000     0.317510000000     1.44376    
V2       V      0.839520000000     0.703690000000     0.312390000000     1.38728    
V3       V      0.175840000000     0.805220000000     0.392940000000     1.43046    
V4       V      0.168830000000     0.870510000000     0.396570000000     1.40305    
V5       V      0.502540000000     0.973410000000     0.979690000000     1.42417    
V6       V      0.509400000000     0.045520000000     0.474770000000     1.40114    
V7       V      0.168110000000     0.303700000000     0.148430000000     1.43793    
V8       V      0.176250000000     0.375990000000     0.140820000000     1.4042     
V9       V      0.841380000000     0.138720000000     0.060570000000     1.42673    
V10      V      0.834660000000     0.203980000000     0.066170000000     1.40834    
V11      V      0.506360000000     0.468820000000     0.229120000000     1.43935    
V12      V      0.501020000000     0.534900000000     0.234310000000     1.3959     
V13      V      0.204550000000     0.375030000000     0.392070000000     1.41078    
V14      V      0.137640000000     0.304000000000     0.395980000000     1.4128     
V15      V      0.373200000000     0.209650000000     0.308900000000     1.45433    
V16      V      0.302920000000     0.141910000000     0.305310000000     1.38613    
V17      V      0.039200000000     0.537520000000     0.483540000000     1.4358     
V18      V      0.968270000000     0.471700000000     0.976090000000     1.41245    
V19      V      0.706990000000     0.869510000000     0.154890000000     1.41886    
V20      V      0.635650000000     0.803580000000     0.148580000000     1.40504    
V21      V      0.868720000000     0.704530000000     0.061680000000     1.42957    
V22      V      0.802990000000     0.633420000000     0.069090000000     1.41921    
V23      V      0.540190000000     0.043930000000     0.223650000000     1.40266    
V24      V      0.473370000000     0.973680000000     0.230870000000     1.43953    
V25      V      0.302890000000     0.162130000000     0.053090000000     1.40497    
V26      V      0.374880000000     0.169380000000     0.060870000000     1.42256    
V27      V      0.472870000000     0.505350000000     0.985080000000     1.38004    
V28      V      0.538480000000     0.499530000000     0.478360000000     1.45789    
V29      V      0.139840000000     0.839900000000     0.148780000000     1.4174     
V30      V      0.203240000000     0.830650000000     0.140800000000     1.43475    
V31      V      0.965980000000     0.499890000000     0.228020000000     1.42512    
V32      V      0.037960000000     0.506420000000     0.232660000000     1.4034     
V33      V      0.804970000000     0.172160000000     0.316370000000     1.39124    
V34      V      0.870650000000     0.166270000000     0.310670000000     1.43815    
V35      V      0.636650000000     0.835190000000     0.398800000000     1.40123    
V36      V      0.707840000000     0.840200000000     0.404500000000     1.42578    
V37      V      0.835120000000     0.632670000000     0.817510000000     1.44414    
V38      V      0.839530000000     0.703690000000     0.812390000000     1.38724    
V39      V      0.175840000000     0.805220000000     0.892940000000     1.43046    
V40      V      0.168830000000     0.870510000000     0.896570000000     1.40305    
V41      V      0.502540000000     0.973410000000     0.479690000000     1.42435    
V42      V      0.509400000000     0.045520000000     0.974770000000     1.40103    
V43      V      0.168110000000     0.303700000000     0.648430000000     1.4377     
V44      V      0.176250000000     0.375990000000     0.640820000000     1.40416    
V45      V      0.841380000000     0.138720000000     0.560560000000     1.42693    
V46      V      0.834660000000     0.203980000000     0.566170000000     1.40852    
V47      V      0.506360000000     0.468820000000     0.729120000000     1.43927    
V48      V      0.501020000000     0.534900000000     0.734310000000     1.39582    
V49      V      0.204550000000     0.375030000000     0.892070000000     1.41078    
V50      V      0.137640000000     0.304000000000     0.895980000000     1.4128     
V51      V      0.373200000000     0.209650000000     0.808900000000     1.45427    
V52      V      0.302920000000     0.141910000000     0.805310000000     1.38641    
V53      V      0.039200000000     0.537520000000     0.983540000000     1.43574    
V54      V      0.968270000000     0.471700000000     0.476090000000     1.41278    
V55      V      0.706990000000     0.869510000000     0.654890000000     1.41883    
V56      V      0.635650000000     0.803580000000     0.648580000000     1.40496    
V57      V      0.868720000000     0.704540000000     0.561680000000     1.42957    
V58      V      0.802990000000     0.633430000000     0.569090000000     1.41914    
V59      V      0.540190000000     0.043930000000     0.723650000000     1.40263    
V60      V      0.473370000000     0.973680000000     0.730870000000     1.43933    
V61      V      0.302890000000     0.162130000000     0.553100000000     1.40496    
V62      V      0.374880000000     0.169380000000     0.560870000000     1.42253    
V63      V      0.472870000000     0.505350000000     0.485080000000     1.38041    
V64      V      0.538480000000     0.499530000000     0.978360000000     1.45769    
V65      V      0.139840000000     0.839900000000     0.648770000000     1.41766    
V66      V      0.203240000000     0.830650000000     0.640800000000     1.43398    
V67      V      0.965980000000     0.499890000000     0.728020000000     1.42516    
V68      V      0.037960000000     0.506420000000     0.732660000000     1.40358    
V69      V      0.804970000000     0.172160000000     0.816370000000     1.39135    
V70      V      0.870650000000     0.166270000000     0.810670000000     1.4378     
V71      V      0.636650000000     0.835190000000     0.898800000000     1.40126    
V72      V      0.707840000000     0.840200000000     0.904500000000     1.42545    


