data_structure

_audit_creation_method RASPA-1.0
_audit_creation_date 2023-5-23
_audit_author_name 'Poobodin Mano'

_cell_length_a    31.7081
_cell_length_b    31.6539
_cell_length_c    42.4504
_cell_angle_alpha 90
_cell_angle_beta  90
_cell_angle_gamma 90
_cell_volume      42606.8

_symmetry_cell_setting          triclinic
_symmetry_space_group_name_Hall 'P 1'
_symmetry_space_group_name_H-M  'P 1'
_symmetry_Int_Tables_number     1

_symmetry_equiv_pos_as_xyz 'x,y,z'

loop_
_atom_site_label
_atom_site_type_symbol
_atom_site_fract_x
_atom_site_fract_y
_atom_site_fract_z
_atom_site_charge
C1       C      0.267680000000     0.016600000000     0.506750000000     0.473975   
C2       C      0.427530000000     0.015890000000     0.509780000000     0.472479   
C3       C      0.348890000000     0.016290000000     0.448470000000     0.472485   
C4       C      0.346030000000     0.016040000000     0.068050000000     0.471354   
C5       C      0.267510000000     0.016310000000     0.258260000000     0.474006   
C6       C      0.427390000000     0.015860000000     0.259080000000     0.472482   
C7       C      0.347390000000     0.016190000000     0.198510000000     0.472041   
C8       C      0.347280000000     0.016000000000     0.318100000000     0.472301   
C9       C      0.013830000000     0.762780000000     0.523300000000     0.474213   
C10      C      0.015240000000     0.602720000000     0.519490000000     0.472641   
C11      C      0.014790000000     0.684330000000     0.461980000000     0.471778   
C12      C      0.014610000000     0.681420000000     0.081560000000     0.471669   
C13      C      0.013890000000     0.762820000000     0.273380000000     0.473849   
C14      C      0.015940000000     0.602730000000     0.269420000000     0.472368   
C15      C      0.015060000000     0.684430000000     0.211980000000     0.471769   
C16      C      0.014840000000     0.681350000000     0.331560000000     0.472375   
C17      C      0.761860000000     0.014830000000     0.518770000000     0.474068   
C18      C      0.602000000000     0.015540000000     0.515700000000     0.472615   
C19      C      0.683500000000     0.015340000000     0.457450000000     0.471839   
C20      C      0.680590000000     0.015190000000     0.077020000000     0.472214   
C21      C      0.761560000000     0.015120000000     0.267210000000     0.474644   
C22      C      0.601720000000     0.015560000000     0.266450000000     0.472611   
C23      C      0.681830000000     0.015490000000     0.207400000000     0.47223    
C24      C      0.681790000000     0.015170000000     0.326990000000     0.471855   
C25      C      0.094440000000     0.015790000000     0.009000000000     0.470508   
C26      C      0.935110000000     0.015640000000     0.016560000000     0.470428   
C27      C      0.015150000000     0.095320000000     0.507310000000     0.477593   
C28      C      0.014460000000     0.936120000000     0.518260000000     0.477152   
C29      C      0.094150000000     0.015820000000     0.261150000000     0.476177   
C30      C      0.934680000000     0.015680000000     0.264300000000     0.47618    
C31      C      0.013880000000     0.095270000000     0.257170000000     0.476349   
C32      C      0.014110000000     0.936210000000     0.268310000000     0.475695   
C33      C      0.016570000000     0.268670000000     0.502170000000     0.474034   
C34      C      0.015670000000     0.428730000000     0.506050000000     0.472444   
C35      C      0.017350000000     0.350120000000     0.443940000000     0.472123   
C36      C      0.014600000000     0.347090000000     0.063510000000     0.471466   
C37      C      0.014340000000     0.268640000000     0.252230000000     0.473931   
C38      C      0.016220000000     0.428720000000     0.255990000000     0.472399   
C39      C      0.014120000000     0.350030000000     0.193940000000     0.471895   
C40      C      0.016860000000     0.347140000000     0.313510000000     0.471818   
C41      C      0.980490000000     0.350950000000     0.395190000000     0.0328084  
C42      C      0.054780000000     0.347410000000     0.395150000000     0.0297162  
C43      C      0.054630000000     0.346290000000     0.362190000000     0.0298114  
C44      C      0.980350000000     0.349860000000     0.362370000000     0.0328196  
C45      C      0.976820000000     0.346400000000     0.112190000000     0.0328022  
C46      C      0.051120000000     0.349580000000     0.112370000000     0.0297283  
C47      C      0.050980000000     0.350660000000     0.145190000000     0.0297343  
C48      C      0.976680000000     0.347510000000     0.145150000000     0.0328474  
C49      C      0.986550000000     0.160980000000     0.273480000000     0.0355109  
C50      C      0.039000000000     0.158640000000     0.233950000000     0.031339   
C51      C      0.040930000000     0.202840000000     0.234110000000     0.0315008  
C52      C      0.985420000000     0.204880000000     0.271250000000     0.0346029  
C53      C      0.990570000000     0.158920000000     0.484130000000     0.034855   
C54      C      0.043320000000     0.160760000000     0.023440000000     0.0313093  
C55      C      0.045000000000     0.204630000000     0.021100000000     0.0307406  
C56      C      0.989230000000     0.203130000000     0.484180000000     0.0345805  
C57      C      0.826640000000     0.042020000000     0.285650000000     0.0316927  
C58      C      0.825650000000     0.988190000000     0.247050000000     0.0348445  
C59      C      0.869570000000     0.990040000000     0.245060000000     0.0358071  
C60      C      0.870670000000     0.040580000000     0.286050000000     0.0323261  
C61      C      0.682710000000     0.977960000000     0.375790000000     0.0328252  
C62      C      0.682730000000     0.052450000000     0.375750000000     0.0298328  
C63      C      0.683500000000     0.052550000000     0.408650000000     0.0296517  
C64      C      0.683180000000     0.978050000000     0.408690000000     0.032891   
C65      C      0.680660000000     0.978050000000     0.125820000000     0.0329241  
C66      C      0.680870000000     0.052560000000     0.125720000000     0.0299107  
C67      C      0.681490000000     0.052690000000     0.158610000000     0.0298344  
C68      C      0.681000000000     0.978180000000     0.158700000000     0.0329718  
C69      C      0.826830000000     0.042650000000     0.037250000000     0.0298486  
C70      C      0.826290000000     0.985880000000     0.501080000000     0.0345366  
C71      C      0.870170000000     0.987370000000     0.499500000000     0.0355973  
C72      C      0.870940000000     0.041170000000     0.038100000000     0.0320531  
C73      C      0.053470000000     0.537740000000     0.264520000000     0.0299072  
C74      C      0.979100000000     0.537540000000     0.264730000000     0.0331927  
C75      C      0.979170000000     0.493780000000     0.260800000000     0.0330635  
C76      C      0.053540000000     0.493850000000     0.260740000000     0.0300428  
C77      C      0.984320000000     0.826720000000     0.255120000000     0.0345314  
C78      C      0.041430000000     0.828520000000     0.290880000000     0.0316608  
C79      C      0.039830000000     0.872720000000     0.290990000000     0.0313414  
C80      C      0.985640000000     0.870610000000     0.252800000000     0.0356327  
C81      C      0.978350000000     0.493610000000     0.511650000000     0.032987   
C82      C      0.052690000000     0.494020000000     0.010040000000     0.0296412  
C83      C      0.052620000000     0.537840000000     0.013880000000     0.0294521  
C84      C      0.978280000000     0.537420000000     0.515520000000     0.0331997  
C85      C      0.977670000000     0.682960000000     0.413210000000     0.0329184  
C86      C      0.052040000000     0.683930000000     0.413230000000     0.0297789  
C87      C      0.052010000000     0.682700000000     0.380330000000     0.0299092  
C88      C      0.977640000000     0.681980000000     0.380320000000     0.0328722  
C89      C      0.051960000000     0.682720000000     0.130250000000     0.0298905  
C90      C      0.977590000000     0.682240000000     0.130400000000     0.0327492  
C91      C      0.977760000000     0.683210000000     0.163290000000     0.0329575  
C92      C      0.052130000000     0.683980000000     0.163150000000     0.0296915  
C93      C      0.041140000000     0.828400000000     0.041110000000     0.0314123  
C94      C      0.984860000000     0.826710000000     0.504620000000     0.0345836  
C95      C      0.986320000000     0.870590000000     0.502300000000     0.0358417  
C96      C      0.039580000000     0.872610000000     0.041220000000     0.0309998  
C97      C      0.492460000000     0.978510000000     0.262550000000     0.0330463  
C98      C      0.492720000000     0.052980000000     0.260810000000     0.0299944  
C99      C      0.536660000000     0.052910000000     0.262980000000     0.0300858  
C100     C      0.536400000000     0.978450000000     0.264730000000     0.033152   
C101     C      0.202370000000     0.987400000000     0.241510000000     0.0345132  
C102     C      0.203260000000     0.045290000000     0.276660000000     0.0314556  
C103     C      0.159330000000     0.043720000000     0.278650000000     0.0310553  
C104     C      0.158340000000     0.988630000000     0.241090000000     0.0343738  
C105     C      0.492900000000     0.052980000000     0.511050000000     0.0300188  
C106     C      0.492640000000     0.978520000000     0.512790000000     0.0331083  
C107     C      0.536640000000     0.978450000000     0.514430000000     0.0331369  
C108     C      0.536890000000     0.052910000000     0.512680000000     0.0300212  
C109     C      0.348550000000     0.978940000000     0.399770000000     0.0329938  
C110     C      0.348630000000     0.053450000000     0.399680000000     0.0298588  
C111     C      0.348180000000     0.053330000000     0.366800000000     0.0299483  
C112     C      0.347820000000     0.978820000000     0.366890000000     0.0329439  
C113     C      0.346310000000     0.053300000000     0.116810000000     0.0297821  
C114     C      0.345870000000     0.978810000000     0.116850000000     0.0327085  
C115     C      0.346530000000     0.978900000000     0.149750000000     0.032856   
C116     C      0.346680000000     0.053400000000     0.149710000000     0.0295559  
C117     C      0.202710000000     0.988780000000     0.488290000000     0.0346283  
C118     C      0.203260000000     0.045540000000     0.524470000000     0.0312492  
C119     C      0.159380000000     0.044060000000     0.026050000000     0.0310737  
C120     C      0.158600000000     0.990260000000     0.987450000000     0.0387065  
C121     C      0.267680000000     0.016600000000     0.006750000000     0.473097   
C122     C      0.427530000000     0.015890000000     0.009780000000     0.471607   
C123     C      0.348890000000     0.016290000000     0.948480000000     0.471926   
C124     C      0.346030000000     0.016040000000     0.568050000000     0.471819   
C125     C      0.267510000000     0.016310000000     0.758260000000     0.474015   
C126     C      0.427390000000     0.015860000000     0.759080000000     0.472526   
C127     C      0.347390000000     0.016190000000     0.698510000000     0.471676   
C128     C      0.347280000000     0.016000000000     0.818100000000     0.472398   
C129     C      0.013830000000     0.762780000000     0.023300000000     0.47296    
C130     C      0.015240000000     0.602720000000     0.019490000000     0.47178    
C131     C      0.014790000000     0.684330000000     0.961980000000     0.471198   
C132     C      0.014610000000     0.681420000000     0.581560000000     0.472114   
C133     C      0.013890000000     0.762820000000     0.773370000000     0.473905   
C134     C      0.015940000000     0.602730000000     0.769420000000     0.472432   
C135     C      0.015060000000     0.684430000000     0.711980000000     0.471768   
C136     C      0.014840000000     0.681350000000     0.831560000000     0.472494   
C137     C      0.761860000000     0.014830000000     0.018770000000     0.472424   
C138     C      0.602000000000     0.015540000000     0.015700000000     0.471728   
C139     C      0.683500000000     0.015340000000     0.957450000000     0.47125    
C140     C      0.680590000000     0.015190000000     0.577020000000     0.472632   
C141     C      0.761560000000     0.015120000000     0.767210000000     0.474664   
C142     C      0.601720000000     0.015560000000     0.766450000000     0.472671   
C143     C      0.681830000000     0.015490000000     0.707400000000     0.47223    
C144     C      0.681790000000     0.015170000000     0.826990000000     0.471963   
C145     C      0.094440000000     0.015790000000     0.509000000000     0.477032   
C146     C      0.935110000000     0.015640000000     0.516560000000     0.476656   
C147     C      0.015150000000     0.095320000000     0.007310000000     0.470711   
C148     C      0.014460000000     0.936120000000     0.018260000000     0.470172   
C149     C      0.094150000000     0.015820000000     0.761150000000     0.476182   
C150     C      0.934680000000     0.015680000000     0.764300000000     0.476182   
C151     C      0.013880000000     0.095270000000     0.757170000000     0.476351   
C152     C      0.014110000000     0.936210000000     0.768310000000     0.475702   
C153     C      0.016570000000     0.268670000000     0.002170000000     0.473103   
C154     C      0.015670000000     0.428730000000     0.006050000000     0.471575   
C155     C      0.017350000000     0.350120000000     0.943950000000     0.471331   
C156     C      0.014590000000     0.347090000000     0.563510000000     0.471919   
C157     C      0.014340000000     0.268640000000     0.752230000000     0.47396    
C158     C      0.016220000000     0.428720000000     0.755990000000     0.472457   
C159     C      0.014120000000     0.350030000000     0.693940000000     0.471909   
C160     C      0.016860000000     0.347140000000     0.813510000000     0.471868   
C161     C      0.980490000000     0.350950000000     0.895190000000     0.0330976  
C162     C      0.054780000000     0.347410000000     0.895150000000     0.0300333  
C163     C      0.054630000000     0.346290000000     0.862190000000     0.0300929  
C164     C      0.980350000000     0.349860000000     0.862370000000     0.0330728  
C165     C      0.976820000000     0.346400000000     0.612190000000     0.0328749  
C166     C      0.051120000000     0.349580000000     0.612370000000     0.0298062  
C167     C      0.050980000000     0.350650000000     0.645190000000     0.0297642  
C168     C      0.976680000000     0.347510000000     0.645150000000     0.0328974  
C169     C      0.986550000000     0.160980000000     0.773480000000     0.0355741  
C170     C      0.039000000000     0.158640000000     0.733950000000     0.0313762  
C171     C      0.040930000000     0.202840000000     0.734110000000     0.0315444  
C172     C      0.985420000000     0.204870000000     0.771250000000     0.0346374  
C173     C      0.990570000000     0.158920000000     0.984130000000     0.0387226  
C174     C      0.043320000000     0.160760000000     0.523440000000     0.032354   
C175     C      0.045000000000     0.204630000000     0.521110000000     0.0313392  
C176     C      0.989230000000     0.203130000000     0.984180000000     0.039118   
C177     C      0.826640000000     0.042020000000     0.785650000000     0.0318199  
C178     C      0.825650000000     0.988190000000     0.747050000000     0.0348277  
C179     C      0.869570000000     0.990040000000     0.745060000000     0.0358621  
C180     C      0.870670000000     0.040580000000     0.786050000000     0.0323541  
C181     C      0.682710000000     0.977960000000     0.875790000000     0.0330944  
C182     C      0.682730000000     0.052450000000     0.875750000000     0.0301236  
C183     C      0.683500000000     0.052550000000     0.908650000000     0.0300445  
C184     C      0.683180000000     0.978050000000     0.908700000000     0.0332762  
C185     C      0.680660000000     0.978050000000     0.625820000000     0.0329931  
C186     C      0.680870000000     0.052560000000     0.625730000000     0.0299345  
C187     C      0.681490000000     0.052690000000     0.658610000000     0.0298764  
C188     C      0.681000000000     0.978180000000     0.658700000000     0.0330104  
C189     C      0.826830000000     0.042650000000     0.537250000000     0.0316312  
C190     C      0.826290000000     0.985890000000     0.001080000000     0.0188057  
C191     C      0.870170000000     0.987360000000     0.999500000000     0.0502535  
C192     C      0.870940000000     0.041170000000     0.538110000000     0.0315514  
C193     C      0.053470000000     0.537740000000     0.764520000000     0.0300236  
C194     C      0.979100000000     0.537540000000     0.764730000000     0.033304   
C195     C      0.979170000000     0.493780000000     0.760800000000     0.0331671  
C196     C      0.053540000000     0.493850000000     0.760740000000     0.0301503  
C197     C      0.984320000000     0.826720000000     0.755120000000     0.034576   
C198     C      0.041430000000     0.828520000000     0.790880000000     0.0317461  
C199     C      0.039830000000     0.872720000000     0.790990000000     0.0314129  
C200     C      0.985640000000     0.870610000000     0.752800000000     0.0356597  
C201     C      0.978350000000     0.493610000000     0.011650000000     0.0324851  
C202     C      0.052690000000     0.494020000000     0.510030000000     0.0301407  
C203     C      0.052620000000     0.537840000000     0.513880000000     0.0299509  
C204     C      0.978280000000     0.537420000000     0.015520000000     0.0326995  
C205     C      0.977670000000     0.682950000000     0.913210000000     0.0333522  
C206     C      0.052040000000     0.683930000000     0.913230000000     0.0301266  
C207     C      0.052010000000     0.682700000000     0.880330000000     0.0302433  
C208     C      0.977640000000     0.681980000000     0.880320000000     0.0331411  
C209     C      0.051960000000     0.682720000000     0.630260000000     0.0299154  
C210     C      0.977590000000     0.682240000000     0.630400000000     0.0328149  
C211     C      0.977760000000     0.683210000000     0.663290000000     0.0329909  
C212     C      0.052130000000     0.683980000000     0.663150000000     0.029729   
C213     C      0.041140000000     0.828400000000     0.541110000000     0.0317345  
C214     C      0.984860000000     0.826710000000     0.004620000000     0.0296165  
C215     C      0.986320000000     0.870590000000     0.002300000000     0.0302155  
C216     C      0.039590000000     0.872610000000     0.541220000000     0.0315683  
C217     C      0.492460000000     0.978510000000     0.762550000000     0.0331525  
C218     C      0.492720000000     0.052980000000     0.760800000000     0.0301009  
C219     C      0.536660000000     0.052910000000     0.762980000000     0.0302015  
C220     C      0.536400000000     0.978450000000     0.764730000000     0.0332649  
C221     C      0.202370000000     0.987400000000     0.741500000000     0.0344815  
C222     C      0.203260000000     0.045290000000     0.776660000000     0.0315145  
C223     C      0.159330000000     0.043720000000     0.778650000000     0.0311284  
C224     C      0.158340000000     0.988630000000     0.741090000000     0.0344468  
C225     C      0.492900000000     0.052980000000     0.011050000000     0.0295201  
C226     C      0.492640000000     0.978520000000     0.012790000000     0.032609   
C227     C      0.536640000000     0.978450000000     0.014430000000     0.0326332  
C228     C      0.536890000000     0.052910000000     0.012680000000     0.0295252  
C229     C      0.348550000000     0.978940000000     0.899770000000     0.0332985  
C230     C      0.348630000000     0.053450000000     0.899690000000     0.0301914  
C231     C      0.348180000000     0.053320000000     0.866800000000     0.0303074  
C232     C      0.347820000000     0.978820000000     0.866890000000     0.0332127  
C233     C      0.346310000000     0.053300000000     0.616810000000     0.029856   
C234     C      0.345870000000     0.978810000000     0.616850000000     0.0327982  
C235     C      0.346530000000     0.978900000000     0.649750000000     0.032888   
C236     C      0.346680000000     0.053400000000     0.649710000000     0.0295829  
C237     C      0.202710000000     0.988780000000     0.988290000000     0.0391872  
C238     C      0.203260000000     0.045540000000     0.024460000000     0.030679   
C239     C      0.159380000000     0.044060000000     0.526050000000     0.032122   
C240     C      0.158600000000     0.990260000000     0.487450000000     0.0348206  
H1       H      0.950270000000     0.352740000000     0.407060000000     0.0331702  
H2       H      0.084970000000     0.346300000000     0.407110000000     0.0332192  
H3       H      0.084730000000     0.344510000000     0.350140000000     0.033203   
H4       H      0.950030000000     0.350960000000     0.350590000000     0.0330872  
H5       H      0.946710000000     0.344790000000     0.100140000000     0.0328596  
H6       H      0.081440000000     0.350520000000     0.100590000000     0.0331402  
H7       H      0.081210000000     0.352280000000     0.157060000000     0.0333096  
H8       H      0.946480000000     0.346560000000     0.157110000000     0.0329842  
H9       H      0.965130000000     0.145480000000     0.289730000000     0.0299688  
H10      H      0.060390000000     0.141220000000     0.218810000000     0.0294572  
H11      H      0.063220000000     0.218500000000     0.218640000000     0.0299508  
H12      H      0.963560000000     0.222050000000     0.286170000000     0.0307301  
H13      H      0.968860000000     0.141720000000     0.469110000000     0.0297925  
H14      H      0.064690000000     0.145060000000     0.039620000000     0.0293202  
H15      H      0.067180000000     0.221590000000     0.035900000000     0.0304037  
H16      H      0.967020000000     0.219010000000     0.468770000000     0.0302513  
H17      H      0.810600000000     0.063360000000     0.301660000000     0.029818   
H18      H      0.808800000000     0.966780000000     0.231560000000     0.030255   
H19      H      0.885580000000     0.969470000000     0.228470000000     0.0298234  
H20      H      0.887560000000     0.061310000000     0.302030000000     0.0291229  
H21      H      0.682450000000     0.947650000000     0.363880000000     0.032987   
H22      H      0.682590000000     0.082730000000     0.363810000000     0.033317   
H23      H      0.683760000000     0.082850000000     0.420550000000     0.0330699  
H24      H      0.683290000000     0.947770000000     0.420630000000     0.0331773  
H25      H      0.680400000000     0.947730000000     0.113930000000     0.0328376  
H26      H      0.680860000000     0.082820000000     0.113760000000     0.0333403  
H27      H      0.681800000000     0.083000000000     0.170510000000     0.033156   
H28      H      0.681010000000     0.947910000000     0.170650000000     0.0331523  
H29      H      0.810590000000     0.065290000000     0.052110000000     0.0306804  
H30      H      0.809730000000     0.963330000000     0.486330000000     0.0308589  
H31      H      0.886280000000     0.965490000000     0.483920000000     0.0303192  
H32      H      0.887690000000     0.063210000000     0.053150000000     0.0300807  
H33      H      0.083650000000     0.553750000000     0.265770000000     0.0331244  
H34      H      0.948800000000     0.553310000000     0.266110000000     0.0330559  
H35      H      0.948930000000     0.477900000000     0.259540000000     0.0331094  
H36      H      0.083780000000     0.477950000000     0.259380000000     0.0330594  
H37      H      0.961710000000     0.809650000000     0.240770000000     0.031049   
H38      H      0.064300000000     0.812770000000     0.305820000000     0.0303906  
H39      H      0.062000000000     0.890030000000     0.305560000000     0.0304283  
H40      H      0.963580000000     0.886200000000     0.237070000000     0.0306661  
H41      H      0.948160000000     0.477560000000     0.510990000000     0.0330483  
H42      H      0.082950000000     0.478290000000     0.008060000000     0.0326112  
H43      H      0.082810000000     0.553910000000     0.014540000000     0.0325724  
H44      H      0.948010000000     0.553130000000     0.517500000000     0.0330954  
H45      H      0.947420000000     0.682950000000     0.425120000000     0.0331679  
H46      H      0.082260000000     0.684630000000     0.425160000000     0.0331605  
H47      H      0.082250000000     0.682700000000     0.368420000000     0.033379   
H48      H      0.947410000000     0.681310000000     0.368400000000     0.0330172  
H49      H      0.082160000000     0.682620000000     0.118270000000     0.0332367  
H50      H      0.947310000000     0.681650000000     0.118540000000     0.0328498  
H51      H      0.947560000000     0.683300000000     0.175260000000     0.0331207  
H52      H      0.082400000000     0.684590000000     0.175020000000     0.0330291  
H53      H      0.063630000000     0.812600000000     0.056350000000     0.0300275  
H54      H      0.962560000000     0.809660000000     0.489980000000     0.0309047  
H55      H      0.964680000000     0.886230000000     0.486280000000     0.0301516  
H56      H      0.061410000000     0.889890000000     0.056090000000     0.0298609  
H57      H      0.476420000000     0.948260000000     0.262520000000     0.0330514  
H58      H      0.476890000000     0.083280000000     0.259360000000     0.0332185  
H59      H      0.552700000000     0.083170000000     0.263010000000     0.0332104  
H60      H      0.552230000000     0.948150000000     0.266180000000     0.0330138  
H61      H      0.218390000000     0.964380000000     0.226840000000     0.030682   
H62      H      0.220000000000     0.068390000000     0.290810000000     0.0308554  
H63      H      0.143340000000     0.066130000000     0.293860000000     0.0313489  
H64      H      0.141560000000     0.966070000000     0.226480000000     0.0313622  
H65      H      0.477060000000     0.083290000000     0.509770000000     0.0332884  
H66      H      0.476600000000     0.948270000000     0.512930000000     0.0330112  
H67      H      0.552480000000     0.948140000000     0.515710000000     0.0330937  
H68      H      0.552940000000     0.083160000000     0.512540000000     0.033198   
H69      H      0.348640000000     0.948680000000     0.411730000000     0.0332076  
H70      H      0.348880000000     0.083770000000     0.411580000000     0.0332028  
H71      H      0.348080000000     0.083590000000     0.354850000000     0.0334403  
H72      H      0.347530000000     0.948500000000     0.355000000000     0.0329321  
H73      H      0.346280000000     0.083590000000     0.104870000000     0.0330877  
H74      H      0.345600000000     0.948510000000     0.104940000000     0.0327094  
H75      H      0.346580000000     0.948620000000     0.161690000000     0.033039   
H76      H      0.346940000000     0.083700000000     0.161610000000     0.0329803  
H77      H      0.218940000000     0.966140000000     0.473420000000     0.0304895  
H78      H      0.219830000000     0.068090000000     0.539210000000     0.0305566  
H79      H      0.143280000000     0.065920000000     0.041640000000     0.0294135  
H80      H      0.141840000000     0.968220000000     0.972410000000     0.0305648  
H81      H      0.950270000000     0.352740000000     0.907060000000     0.0338942  
H82      H      0.084970000000     0.346300000000     0.907110000000     0.0339995  
H83      H      0.084730000000     0.344510000000     0.850140000000     0.0335234  
H84      H      0.950030000000     0.350960000000     0.850580000000     0.0333895  
H85      H      0.946710000000     0.344790000000     0.600140000000     0.0330882  
H86      H      0.081440000000     0.350520000000     0.600590000000     0.033317   
H87      H      0.081210000000     0.352280000000     0.657070000000     0.0334372  
H88      H      0.946480000000     0.346560000000     0.657110000000     0.0331169  
H89      H      0.965130000000     0.145480000000     0.789730000000     0.0300862  
H90      H      0.060390000000     0.141220000000     0.718810000000     0.029491   
H91      H      0.063220000000     0.218500000000     0.718640000000     0.0300131  
H92      H      0.963560000000     0.222050000000     0.786170000000     0.0308877  
H93      H      0.968860000000     0.141720000000     0.969100000000     0.0300654  
H94      H      0.064690000000     0.145060000000     0.539620000000     0.029356   
H95      H      0.067180000000     0.221590000000     0.535900000000     0.030632   
H96      H      0.967020000000     0.219010000000     0.968770000000     0.0307232  
H97      H      0.810600000000     0.063360000000     0.801660000000     0.0299738  
H98      H      0.808800000000     0.966780000000     0.731560000000     0.0303364  
H99      H      0.885580000000     0.969470000000     0.728470000000     0.0298609  
H100     H      0.887560000000     0.061310000000     0.802020000000     0.0292705  
H101     H      0.682450000000     0.947650000000     0.863880000000     0.0333118  
H102     H      0.682590000000     0.082730000000     0.863810000000     0.0336629  
H103     H      0.683760000000     0.082850000000     0.920550000000     0.0338722  
H104     H      0.683290000000     0.947770000000     0.920630000000     0.0338877  
H105     H      0.680400000000     0.947730000000     0.613930000000     0.0330374  
H106     H      0.680860000000     0.082820000000     0.613760000000     0.0335349  
H107     H      0.681800000000     0.083000000000     0.670510000000     0.0332733  
H108     H      0.681010000000     0.947910000000     0.670650000000     0.0332775  
H109     H      0.810590000000     0.065290000000     0.552110000000     0.0305885  
H110     H      0.809730000000     0.963330000000     0.986330000000     0.0383847  
H111     H      0.886280000000     0.965490000000     0.983920000000     0.0279716  
H112     H      0.887690000000     0.063210000000     0.553150000000     0.0305615  
H113     H      0.083650000000     0.553750000000     0.765770000000     0.0333118  
H114     H      0.948800000000     0.553310000000     0.766110000000     0.0332385  
H115     H      0.948930000000     0.477900000000     0.759540000000     0.0332815  
H116     H      0.083780000000     0.477950000000     0.759380000000     0.0332361  
H117     H      0.961710000000     0.809650000000     0.740770000000     0.0311149  
H118     H      0.064300000000     0.812770000000     0.805820000000     0.0305703  
H119     H      0.062000000000     0.890030000000     0.805560000000     0.0305834  
H120     H      0.963580000000     0.886200000000     0.737080000000     0.0307118  
H121     H      0.948160000000     0.477560000000     0.010990000000     0.0324243  
H122     H      0.082950000000     0.478290000000     0.508060000000     0.0332549  
H123     H      0.082810000000     0.553910000000     0.514540000000     0.0331964  
H124     H      0.948010000000     0.553130000000     0.017500000000     0.0324925  
H125     H      0.947420000000     0.682950000000     0.925120000000     0.0339095  
H126     H      0.082260000000     0.684630000000     0.925160000000     0.0339942  
H127     H      0.082250000000     0.682700000000     0.868420000000     0.0337306  
H128     H      0.947410000000     0.681310000000     0.868400000000     0.0333635  
H129     H      0.082160000000     0.682620000000     0.618270000000     0.0334264  
H130     H      0.947310000000     0.681650000000     0.618540000000     0.033039   
H131     H      0.947560000000     0.683290000000     0.675260000000     0.033242   
H132     H      0.082400000000     0.684590000000     0.675020000000     0.0331458  
H133     H      0.063630000000     0.812600000000     0.556350000000     0.0302583  
H134     H      0.962560000000     0.809660000000     0.989980000000     0.0359195  
H135     H      0.964680000000     0.886230000000     0.986280000000     0.0348294  
H136     H      0.061410000000     0.889890000000     0.556090000000     0.0300318  
H137     H      0.476420000000     0.948260000000     0.762520000000     0.0332317  
H138     H      0.476890000000     0.083280000000     0.759360000000     0.0333934  
H139     H      0.552700000000     0.083170000000     0.763010000000     0.0333908  
H140     H      0.552230000000     0.948150000000     0.766180000000     0.0331994  
H141     H      0.218390000000     0.964380000000     0.726840000000     0.0307763  
H142     H      0.220000000000     0.068390000000     0.790810000000     0.0310285  
H143     H      0.143340000000     0.066130000000     0.793860000000     0.0315018  
H144     H      0.141560000000     0.966070000000     0.726480000000     0.0313963  
H145     H      0.477060000000     0.083290000000     0.009770000000     0.0326524  
H146     H      0.476600000000     0.948270000000     0.012930000000     0.0323927  
H147     H      0.552480000000     0.948140000000     0.015710000000     0.0324835  
H148     H      0.552940000000     0.083160000000     0.012540000000     0.0325656  
H149     H      0.348640000000     0.948680000000     0.911730000000     0.0339368  
H150     H      0.348880000000     0.083770000000     0.911580000000     0.0339865  
H151     H      0.348080000000     0.083590000000     0.854850000000     0.0337506  
H152     H      0.347530000000     0.948500000000     0.854990000000     0.0332507  
H153     H      0.346280000000     0.083590000000     0.604870000000     0.033263   
H154     H      0.345600000000     0.948510000000     0.604940000000     0.0329256  
H155     H      0.346580000000     0.948620000000     0.661690000000     0.0331756  
H156     H      0.346940000000     0.083700000000     0.661610000000     0.0330981  
H157     H      0.218940000000     0.966140000000     0.973420000000     0.030984   
H158     H      0.219830000000     0.068090000000     0.039220000000     0.0303251  
H159     H      0.143280000000     0.065930000000     0.541640000000     0.0294433  
H160     H      0.141840000000     0.968220000000     0.472410000000     0.0302537  
N1       N      0.017660000000     0.349690000000     0.411610000000    -0.190708   
N2       N      0.017380000000     0.347570000000     0.345840000000    -0.190665   
N3       N      0.014080000000     0.347500000000     0.095840000000    -0.190604   
N4       N      0.013800000000     0.349590000000     0.161610000000    -0.190663   
N5       N      0.012870000000     0.138120000000     0.254490000000    -0.19238    
N6       N      0.013580000000     0.225600000000     0.252390000000    -0.191815   
N7       N      0.016550000000     0.138160000000     0.504630000000    -0.192696   
N8       N      0.016970000000     0.225620000000     0.502320000000    -0.191778   
N9       N      0.804490000000     0.015040000000     0.266710000000    -0.192017   
N10      N      0.891770000000     0.015450000000     0.265130000000    -0.192254   
N11      N      0.682340000000     0.015160000000     0.359320000000    -0.190682   
N12      N      0.683530000000     0.015350000000     0.425120000000    -0.190692   
N13      N      0.680590000000     0.015230000000     0.109340000000    -0.190785   
N14      N      0.681500000000     0.015500000000     0.175080000000    -0.190807   
N15      N      0.804840000000     0.014460000000     0.519130000000    -0.191791   
N16      N      0.892230000000     0.014530000000     0.018380000000    -0.195868   
N17      N      0.016220000000     0.559550000000     0.266490000000    -0.190648   
N18      N      0.016380000000     0.471900000000     0.258910000000    -0.19065    
N19      N      0.013180000000     0.805870000000     0.273300000000    -0.191779   
N20      N      0.012970000000     0.893360000000     0.271050000000    -0.192088   
N21      N      0.015560000000     0.471910000000     0.508970000000    -0.190653   
N22      N      0.015410000000     0.559540000000     0.516570000000    -0.190686   
N23      N      0.014870000000     0.683930000000     0.429650000000    -0.190652   
N24      N      0.014810000000     0.681820000000     0.363890000000    -0.190722   
N25      N      0.014690000000     0.681940000000     0.113890000000    -0.190607   
N26      N      0.015030000000     0.684080000000     0.179650000000    -0.190664   
N27      N      0.013250000000     0.805820000000     0.523170000000    -0.191856   
N28      N      0.013230000000     0.893270000000     0.520930000000    -0.192379   
N29      N      0.470620000000     0.015780000000     0.260630000000    -0.19067    
N30      N      0.558500000000     0.015650000000     0.264910000000    -0.1908     
N31      N      0.224530000000     0.016400000000     0.258730000000    -0.192001   
N32      N      0.137120000000     0.016040000000     0.260300000000    -0.192279   
N33      N      0.470780000000     0.015780000000     0.511120000000    -0.190658   
N34      N      0.558750000000     0.015650000000     0.514360000000    -0.190699   
N35      N      0.348820000000     0.016260000000     0.416160000000    -0.190925   
N36      N      0.347690000000     0.016010000000     0.350420000000    -0.190802   
N37      N      0.345940000000     0.016010000000     0.100380000000    -0.190661   
N38      N      0.346920000000     0.016190000000     0.166180000000    -0.19072    
N39      N      0.224700000000     0.016970000000     0.506400000000    -0.191792   
N40      N      0.137310000000     0.016890000000     0.007180000000    -0.194306   
N41      N      0.017660000000     0.349690000000     0.911610000000    -0.190132   
N42      N      0.017380000000     0.347570000000     0.845840000000    -0.190618   
N43      N      0.014080000000     0.347500000000     0.595840000000    -0.190664   
N44      N      0.013800000000     0.349590000000     0.661610000000    -0.190653   
N45      N      0.012870000000     0.138120000000     0.754490000000    -0.192365   
N46      N      0.013580000000     0.225600000000     0.752390000000    -0.191784   
N47      N      0.016550000000     0.138160000000     0.004630000000    -0.194382   
N48      N      0.016970000000     0.225620000000     0.002320000000    -0.19447    
N49      N      0.804490000000     0.015040000000     0.766720000000    -0.191994   
N50      N      0.891770000000     0.015450000000     0.765130000000    -0.192236   
N51      N      0.682340000000     0.015160000000     0.859320000000    -0.190622   
N52      N      0.683530000000     0.015350000000     0.925120000000    -0.19024    
N53      N      0.680590000000     0.015230000000     0.609340000000    -0.190834   
N54      N      0.681500000000     0.015500000000     0.675080000000    -0.190795   
N55      N      0.804840000000     0.014460000000     0.019130000000    -0.189342   
N56      N      0.892230000000     0.014530000000     0.518380000000    -0.192219   
N57      N      0.016220000000     0.559550000000     0.766490000000    -0.190607   
N58      N      0.016380000000     0.471900000000     0.758910000000    -0.190617   
N59      N      0.013180000000     0.805870000000     0.773300000000    -0.19176    
N60      N      0.012970000000     0.893360000000     0.771050000000    -0.192068   
N61      N      0.015560000000     0.471910000000     0.008970000000    -0.190754   
N62      N      0.015410000000     0.559540000000     0.016570000000    -0.190777   
N63      N      0.014860000000     0.683930000000     0.929650000000    -0.190183   
N64      N      0.014810000000     0.681820000000     0.863890000000    -0.190659   
N65      N      0.014690000000     0.681940000000     0.613890000000    -0.190662   
N66      N      0.015030000000     0.684080000000     0.679650000000    -0.190652   
N67      N      0.013250000000     0.805820000000     0.023170000000    -0.191284   
N68      N      0.013230000000     0.893270000000     0.020930000000    -0.19093    
N69      N      0.470620000000     0.015780000000     0.760630000000    -0.190631   
N70      N      0.558500000000     0.015650000000     0.764910000000    -0.19076    
N71      N      0.224530000000     0.016400000000     0.758730000000    -0.191953   
N72      N      0.137120000000     0.016040000000     0.760300000000    -0.19227    
N73      N      0.470780000000     0.015780000000     0.011120000000    -0.190754   
N74      N      0.558750000000     0.015650000000     0.014350000000    -0.190787   
N75      N      0.348820000000     0.016260000000     0.916160000000    -0.190394   
N76      N      0.347690000000     0.016010000000     0.850420000000    -0.190775   
N77      N      0.345940000000     0.016010000000     0.600380000000    -0.190725   
N78      N      0.346920000000     0.016190000000     0.666170000000    -0.190576   
N79      N      0.224700000000     0.016970000000     0.006400000000    -0.194488   
N80      N      0.137310000000     0.016890000000     0.507180000000    -0.192562   
O1       O      0.287850000000     0.051650000000     0.009090000000    -0.555415   
O2       O      0.407510000000     0.051170000000     0.508470000000    -0.555251   
O3       O      0.347530000000     0.051470000000     0.463670000000    -0.553887   
O4       O      0.347800000000     0.051290000000     0.053100000000    -0.554844   
O5       O      0.344730000000     0.980890000000     0.052800000000    -0.54974    
O6       O      0.349900000000     0.981040000000     0.463450000000    -0.553814   
O7       O      0.407160000000     0.980740000000     0.010080000000    -0.551609   
O8       O      0.287470000000     0.981240000000     0.505300000000    -0.550576   
O9       O      0.287620000000     0.051470000000     0.260050000000    -0.554188   
O10      O      0.407320000000     0.051130000000     0.257830000000    -0.554485   
O11      O      0.346280000000     0.051370000000     0.213730000000    -0.553389   
O12      O      0.348630000000     0.051240000000     0.303130000000    -0.556099   
O13      O      0.345760000000     0.980820000000     0.302900000000    -0.551349   
O14      O      0.348730000000     0.980950000000     0.213480000000    -0.553653   
O15      O      0.407080000000     0.980690000000     0.259420000000    -0.552573   
O16      O      0.287400000000     0.981050000000     0.256360000000    -0.552171   
O17      O      0.049240000000     0.743140000000     0.024820000000    -0.551819   
O18      O      0.050270000000     0.623240000000     0.519620000000    -0.552978   
O19      O      0.049870000000     0.685930000000     0.477230000000    -0.552371   
O20      O      0.049780000000     0.680440000000     0.066560000000    -0.554398   
O21      O      0.979460000000     0.682520000000     0.066380000000    -0.550684   
O22      O      0.979600000000     0.682500000000     0.476920000000    -0.554109   
O23      O      0.979970000000     0.622600000000     0.021270000000    -0.554052   
O24      O      0.978950000000     0.742390000000     0.521030000000    -0.554235   
O25      O      0.049360000000     0.743280000000     0.274810000000    -0.551334   
O26      O      0.050900000000     0.623350000000     0.269670000000    -0.552215   
O27      O      0.050170000000     0.686030000000     0.227210000000    -0.551472   
O28      O      0.050060000000     0.680600000000     0.316600000000    -0.554402   
O29      O      0.979740000000     0.682280000000     0.316340000000    -0.55278    
O30      O      0.979900000000     0.682570000000     0.226940000000    -0.555092   
O31      O      0.980590000000     0.622520000000     0.271120000000    -0.554425   
O32      O      0.979060000000     0.742300000000     0.271150000000    -0.554266   
O33      O      0.741680000000     0.979780000000     0.016450000000    -0.553765   
O34      O      0.622020000000     0.980270000000     0.517020000000    -0.553465   
O35      O      0.681760000000     0.980100000000     0.472410000000    -0.554078   
O36      O      0.681970000000     0.980000000000     0.061850000000    -0.551048   
O37      O      0.679620000000     0.050430000000     0.062040000000    -0.554603   
O38      O      0.684810000000     0.050500000000     0.472690000000    -0.552578   
O39      O      0.622370000000     0.050690000000     0.015390000000    -0.553366   
O40      O      0.742070000000     0.050190000000     0.520190000000    -0.552177   
O41      O      0.741480000000     0.979970000000     0.265280000000    -0.552512   
O42      O      0.621800000000     0.980300000000     0.267730000000    -0.552786   
O43      O      0.680360000000     0.980240000000     0.222350000000    -0.554624   
O44      O      0.682970000000     0.980010000000     0.311750000000    -0.551222   
O45      O      0.680310000000     0.050430000000     0.312040000000    -0.555402   
O46      O      0.683440000000     0.050650000000     0.222620000000    -0.552859   
O47      O      0.622040000000     0.050730000000     0.266050000000    -0.554392   
O48      O      0.741700000000     0.050370000000     0.269270000000    -0.553908   
O49      O      0.072200000000     0.011060000000     0.483870000000    -0.552137   
O50      O      0.952710000000     0.011450000000     0.489550000000    -0.556315   
O51      O      0.011330000000     0.072130000000     0.482570000000    -0.552636   
O52      O      0.011260000000     0.952710000000     0.490810000000    -0.556173   
O53      O      0.018270000000     0.959310000000     0.043000000000    -0.547961   
O54      O      0.018260000000     0.078710000000     0.034760000000    -0.556314   
O55      O      0.957340000000     0.020340000000     0.041700000000    -0.547585   
O56      O      0.076840000000     0.020010000000     0.036010000000    -0.556189   
O57      O      0.073270000000     0.008230000000     0.235840000000    -0.554582   
O58      O      0.953720000000     0.014230000000     0.237590000000    -0.551819   
O59      O      0.017170000000     0.072000000000     0.232420000000    -0.550727   
O60      O      0.009670000000     0.952800000000     0.240950000000    -0.554918   
O61      O      0.019200000000     0.959480000000     0.292890000000    -0.548314   
O62      O      0.011210000000     0.078690000000     0.284650000000    -0.557308   
O63      O      0.955540000000     0.017230000000     0.290230000000    -0.551988   
O64      O      0.075030000000     0.023290000000     0.287250000000    -0.553883   
O65      O      0.981280000000     0.288450000000     0.000200000000    -0.551146   
O66      O      0.980590000000     0.408310000000     0.505730000000    -0.551399   
O67      O      0.981950000000     0.351430000000     0.458650000000    -0.554343   
O68      O      0.979800000000     0.345390000000     0.047950000000    -0.549147   
O69      O      0.050040000000     0.349010000000     0.048880000000    -0.555258   
O70      O      0.052220000000     0.348600000000     0.459430000000    -0.552661   
O71      O      0.050910000000     0.408750000000     0.004440000000    -0.555338   
O72      O      0.051470000000     0.288930000000     0.504910000000    -0.555696   
O73      O      0.979580000000     0.289140000000     0.254930000000    -0.554898   
O74      O      0.980920000000     0.408850000000     0.254460000000    -0.554843   
O75      O      0.979230000000     0.348750000000     0.209430000000    -0.550976   
O76      O      0.981430000000     0.349180000000     0.298890000000    -0.554967   
O77      O      0.051660000000     0.345280000000     0.297950000000    -0.551299   
O78      O      0.049530000000     0.351140000000     0.208640000000    -0.55559    
O79      O      0.051240000000     0.408180000000     0.255620000000    -0.55161    
O80      O      0.049770000000     0.288190000000     0.250260000000    -0.550728   
O81      O      0.287860000000     0.051650000000     0.509090000000    -0.555315   
O82      O      0.407510000000     0.051170000000     0.008470000000    -0.555295   
O83      O      0.347530000000     0.051470000000     0.963670000000    -0.549405   
O84      O      0.347800000000     0.051290000000     0.553100000000    -0.555841   
O85      O      0.344730000000     0.980890000000     0.552800000000    -0.550653   
O86      O      0.349900000000     0.981040000000     0.963450000000    -0.549412   
O87      O      0.407160000000     0.980740000000     0.510080000000    -0.551576   
O88      O      0.287470000000     0.981240000000     0.005300000000    -0.5515     
O89      O      0.287620000000     0.051470000000     0.760050000000    -0.554127   
O90      O      0.407320000000     0.051130000000     0.757830000000    -0.554397   
O91      O      0.346280000000     0.051370000000     0.713730000000    -0.553265   
O92      O      0.348630000000     0.051240000000     0.803130000000    -0.555969   
O93      O      0.345760000000     0.980820000000     0.802900000000    -0.551227   
O94      O      0.348730000000     0.980940000000     0.713480000000    -0.553433   
O95      O      0.407080000000     0.980690000000     0.759420000000    -0.552481   
O96      O      0.287400000000     0.981050000000     0.756360000000    -0.552102   
O97      O      0.049240000000     0.743140000000     0.524820000000    -0.551812   
O98      O      0.050270000000     0.623240000000     0.019620000000    -0.553043   
O99      O      0.049870000000     0.685930000000     0.977230000000    -0.547774   
O100     O      0.049780000000     0.680440000000     0.566560000000    -0.555362   
O101     O      0.979460000000     0.682520000000     0.566380000000    -0.551642   
O102     O      0.979600000000     0.682500000000     0.976920000000    -0.549565   
O103     O      0.979970000000     0.622600000000     0.521270000000    -0.554067   
O104     O      0.978950000000     0.742390000000     0.021030000000    -0.55469    
O105     O      0.049360000000     0.743280000000     0.774800000000    -0.551297   
O106     O      0.050900000000     0.623350000000     0.769670000000    -0.552124   
O107     O      0.050170000000     0.686030000000     0.727210000000    -0.551435   
O108     O      0.050060000000     0.680600000000     0.816600000000    -0.554276   
O109     O      0.979740000000     0.682280000000     0.816340000000    -0.552649   
O110     O      0.979900000000     0.682570000000     0.726940000000    -0.555064   
O111     O      0.980590000000     0.622520000000     0.771120000000    -0.554331   
O112     O      0.979060000000     0.742300000000     0.771150000000    -0.554221   
O113     O      0.741680000000     0.979780000000     0.516450000000    -0.553475   
O114     O      0.622020000000     0.980270000000     0.017020000000    -0.553458   
O115     O      0.681760000000     0.980100000000     0.972410000000    -0.549564   
O116     O      0.681970000000     0.980000000000     0.561850000000    -0.551993   
O117     O      0.679620000000     0.050430000000     0.562040000000    -0.555451   
O118     O      0.684810000000     0.050500000000     0.972680000000    -0.547705   
O119     O      0.622370000000     0.050690000000     0.515390000000    -0.553339   
O120     O      0.742070000000     0.050190000000     0.020190000000    -0.552077   
O121     O      0.741480000000     0.979970000000     0.765280000000    -0.552453   
O122     O      0.621800000000     0.980300000000     0.767730000000    -0.552693   
O123     O      0.680360000000     0.980240000000     0.722350000000    -0.554592   
O124     O      0.682970000000     0.980010000000     0.811750000000    -0.551099   
O125     O      0.680310000000     0.050430000000     0.812040000000    -0.555269   
O126     O      0.683440000000     0.050650000000     0.722620000000    -0.552829   
O127     O      0.622040000000     0.050730000000     0.766050000000    -0.5543     
O128     O      0.741700000000     0.050370000000     0.769270000000    -0.553854   
O129     O      0.072200000000     0.011060000000     0.983870000000    -0.547358   
O130     O      0.952710000000     0.011450000000     0.989550000000    -0.551898   
O131     O      0.011330000000     0.072130000000     0.982560000000    -0.547559   
O132     O      0.011260000000     0.952710000000     0.990810000000    -0.55127    
O133     O      0.018270000000     0.959310000000     0.543000000000    -0.549931   
O134     O      0.018260000000     0.078710000000     0.534760000000    -0.558333   
O135     O      0.957340000000     0.020340000000     0.541700000000    -0.549304   
O136     O      0.076840000000     0.020010000000     0.536010000000    -0.55812    
O137     O      0.073270000000     0.008230000000     0.735840000000    -0.554568   
O138     O      0.953720000000     0.014230000000     0.737590000000    -0.551803   
O139     O      0.017170000000     0.072000000000     0.732420000000    -0.550715   
O140     O      0.009670000000     0.952800000000     0.740950000000    -0.5549     
O141     O      0.019200000000     0.959480000000     0.792890000000    -0.548241   
O142     O      0.011210000000     0.078690000000     0.784650000000    -0.557243   
O143     O      0.955540000000     0.017230000000     0.790230000000    -0.551926   
O144     O      0.075030000000     0.023290000000     0.787250000000    -0.553808   
O145     O      0.981280000000     0.288450000000     0.500200000000    -0.550238   
O146     O      0.980590000000     0.408310000000     0.005730000000    -0.551436   
O147     O      0.981950000000     0.351430000000     0.958650000000    -0.549883   
O148     O      0.979800000000     0.345390000000     0.547950000000    -0.550148   
O149     O      0.050040000000     0.349010000000     0.548880000000    -0.556152   
O150     O      0.052230000000     0.348600000000     0.959430000000    -0.548081   
O151     O      0.050910000000     0.408750000000     0.504440000000    -0.555236   
O152     O      0.051470000000     0.288930000000     0.004910000000    -0.555897   
O153     O      0.979580000000     0.289140000000     0.754930000000    -0.554886   
O154     O      0.980920000000     0.408850000000     0.754460000000    -0.554806   
O155     O      0.979230000000     0.348750000000     0.709430000000    -0.550993   
O156     O      0.981430000000     0.349180000000     0.798880000000    -0.554999   
O157     O      0.051660000000     0.345280000000     0.797950000000    -0.551143   
O158     O      0.049530000000     0.351140000000     0.708640000000    -0.555559   
O159     O      0.051240000000     0.408180000000     0.755620000000    -0.551518   
O160     O      0.049770000000     0.288190000000     0.750260000000    -0.550662   
V1       V      0.347690000000     0.054200000000     0.508500000000     1.39344    
V2       V      0.347300000000     0.978150000000     0.507980000000     1.3937     
V3       V      0.347470000000     0.054110000000     0.258570000000     1.39102    
V4       V      0.347230000000     0.978060000000     0.258080000000     1.39643    
V5       V      0.052610000000     0.683210000000     0.522030000000     1.38585    
V6       V      0.976700000000     0.682480000000     0.521520000000     1.40104    
V7       V      0.052950000000     0.683350000000     0.272040000000     1.3826     
V8       V      0.977040000000     0.682380000000     0.271510000000     1.4039     
V9       V      0.681850000000     0.977230000000     0.517010000000     1.40002    
V10      V      0.682230000000     0.053280000000     0.517500000000     1.38664    
V11      V      0.681650000000     0.977310000000     0.266890000000     1.39812    
V12      V      0.681880000000     0.053360000000     0.267460000000     1.38971    
V13      V      0.011900000000     0.011790000000     0.484570000000     1.38896    
V14      V      0.017650000000     0.019650000000     0.040990000000     1.38258    
V15      V      0.013440000000     0.011750000000     0.234520000000     1.38571    
V16      V      0.015380000000     0.019740000000     0.290930000000     1.3864     
V17      V      0.978080000000     0.348370000000     0.503120000000     1.39325    
V18      V      0.053970000000     0.348840000000     0.504330000000     1.393      
V19      V      0.977490000000     0.349010000000     0.254340000000     1.40302    
V20      V      0.053380000000     0.348160000000     0.253110000000     1.38251    
V21      V      0.347690000000     0.054200000000     0.008500000000     1.3876     
V22      V      0.347300000000     0.978150000000     0.007980000000     1.38796    
V23      V      0.347470000000     0.054110000000     0.758570000000     1.39119    
V24      V      0.347230000000     0.978060000000     0.758080000000     1.39656    
V25      V      0.052610000000     0.683210000000     0.022030000000     1.38029    
V26      V      0.976700000000     0.682480000000     0.021520000000     1.39526    
V27      V      0.052950000000     0.683350000000     0.772040000000     1.38283    
V28      V      0.977040000000     0.682380000000     0.771510000000     1.40409    
V29      V      0.681850000000     0.977230000000     0.017010000000     1.3942     
V30      V      0.682230000000     0.053280000000     0.017510000000     1.38075    
V31      V      0.681650000000     0.977310000000     0.766890000000     1.39831    
V32      V      0.681880000000     0.053360000000     0.767460000000     1.38992    
V33      V      0.011900000000     0.011780000000     0.984570000000     1.39259    
V34      V      0.017650000000     0.019650000000     0.540990000000     1.38986    
V35      V      0.013440000000     0.011750000000     0.734520000000     1.38561    
V36      V      0.015380000000     0.019740000000     0.790930000000     1.38664    
V37      V      0.978080000000     0.348370000000     0.003120000000     1.38735    
V38      V      0.053970000000     0.348840000000     0.004330000000     1.38738    
V39      V      0.977490000000     0.349010000000     0.754340000000     1.40353    
V40      V      0.053380000000     0.348160000000     0.753110000000     1.38263    


