data_structure

_audit_creation_method RASPA-1.0
_audit_creation_date 2023-5-19
_audit_author_name 'Poobodin Mano'

_cell_length_a    42.1322
_cell_length_b    42.1541
_cell_length_c    42.2479
_cell_angle_alpha 90
_cell_angle_beta  90
_cell_angle_gamma 90
_cell_volume      75034.2

_symmetry_cell_setting          triclinic
_symmetry_space_group_name_Hall 'P 1'
_symmetry_space_group_name_H-M  'P 1'
_symmetry_Int_Tables_number     1

_symmetry_equiv_pos_as_xyz 'x,y,z'

loop_
_atom_site_label
_atom_site_type_symbol
_atom_site_fract_x
_atom_site_fract_y
_atom_site_fract_z
_atom_site_charge
C1       C      0.004680000000     0.064010000000     0.250490000000     0.482142   
C2       C      0.993200000000     0.444550000000     0.251690000000     0.476674   
C3       C      0.058430000000     0.498750000000     0.250670000000     0.477674   
C4       C      0.439010000000     0.510100000000     0.251210000000     0.478623   
C5       C      0.506520000000     0.194490000000     0.254610000000     0.483262   
C6       C      0.495360000000     0.314110000000     0.257560000000     0.484904   
C7       C      0.999410000000     0.252160000000     0.315990000000     0.490571   
C8       C      0.002670000000     0.256350000000     0.196180000000     0.485981   
C9       C      0.188860000000     0.499740000000     0.254010000000     0.48507    
C10      C      0.308470000000     0.510870000000     0.254640000000     0.485564   
C11      C      0.248950000000     0.007210000000     0.194110000000     0.470406   
C12      C      0.248340000000     0.003610000000     0.313960000000     0.489749   
C13      C      0.248980000000     0.009090000000     0.063730000000     0.482354   
C14      C      0.246930000000     0.999150000000     0.444250000000     0.493937   
C15      C      0.252200000000     0.063670000000     0.498980000000     0.487103   
C16      C      0.244360000000     0.444110000000     0.509090000000     0.485095   
C17      C      0.061710000000     0.247740000000     0.001340000000     0.482315   
C18      C      0.442240000000     0.257750000000     0.010730000000     0.487268   
C19      C      0.506350000000     0.255510000000     0.065920000000     0.485289   
C20      C      0.497540000000     0.250060000000     0.446460000000     0.485984   
C21      C      0.258320000000     0.194010000000     0.499870000000     0.485595   
C22      C      0.244720000000     0.313220000000     0.508260000000     0.493231   
C23      C      0.192330000000     0.248150000000     0.998660000000     0.493973   
C24      C      0.311760000000     0.260890000000     0.009960000000     0.479379   
C25      C      0.392700000000     0.239510000000     0.030080000000     0.0482212  
C26      C      0.394730000000     0.284110000000     0.996500000000     0.0638178  
C27      C      0.359730000000     0.242270000000     0.031630000000     0.0414741  
C28      C      0.361440000000     0.285300000000     0.995720000000     0.0384449  
C29      C      0.110900000000     0.224290000000     0.515500000000     0.0495322  
C30      C      0.109340000000     0.266030000000     0.478440000000     0.0555189  
C31      C      0.144030000000     0.225850000000     0.515640000000     0.0402066  
C32      C      0.142550000000     0.265730000000     0.476010000000     0.029057   
C33      C      0.264260000000     0.395010000000     0.492170000000     0.0514339  
C34      C      0.221290000000     0.395680000000     0.027790000000     0.052162   
C35      C      0.261980000000     0.362430000000     0.489920000000     0.0498322  
C36      C      0.222060000000     0.362110000000     0.029320000000     0.0297406  
C37      C      0.230660000000     0.113970000000     0.985040000000     0.045435   
C38      C      0.281170000000     0.110800000000     0.008990000000     0.0522948  
C39      C      0.233240000000     0.147000000000     0.984100000000     0.0410382  
C40      C      0.283000000000     0.143950000000     0.010010000000     0.0304763  
C41      C      0.234030000000     0.025930000000     0.363690000000     0.0541665  
C42      C      0.261080000000     0.476950000000     0.361690000000     0.0625851  
C43      C      0.232390000000     0.023630000000     0.396610000000     0.0346725  
C44      C      0.261030000000     0.475280000000     0.394800000000     0.0354443  
C45      C      0.264140000000     0.485130000000     0.144790000000     0.0392654  
C46      C      0.234450000000     0.032570000000     0.146160000000     0.0474222  
C47      C      0.265390000000     0.486900000000     0.111870000000     0.0355049  
C48      C      0.233460000000     0.033230000000     0.112950000000     0.0280982  
C49      C      0.021190000000     0.266470000000     0.365610000000     0.0575654  
C50      C      0.475780000000     0.233770000000     0.363750000000     0.0617881  
C51      C      0.019720000000     0.266570000000     0.398500000000     0.0449554  
C52      C      0.475550000000     0.231730000000     0.397000000000     0.0268172  
C53      C      0.480580000000     0.242240000000     0.146670000000     0.0385863  
C54      C      0.527760000000     0.272400000000     0.148460000000     0.0489479  
C55      C      0.482690000000     0.241020000000     0.113820000000     0.0362456  
C56      C      0.528650000000     0.273490000000     0.115220000000     0.0279153  
C57      C      0.107860000000     0.013740000000     0.228880000000     0.0336017  
C58      C      0.106330000000     0.479430000000     0.272990000000     0.0488499  
C59      C      0.140790000000     0.014850000000     0.230900000000     0.0308694  
C60      C      0.139650000000     0.478200000000     0.273540000000     0.0226148  
C61      C      0.389280000000     0.496690000000     0.229020000000     0.0388045  
C62      C      0.391340000000     0.029400000000     0.274300000000     0.047912   
C63      C      0.356350000000     0.496190000000     0.230910000000     0.0375092  
C64      C      0.358010000000     0.031110000000     0.274920000000     0.022243   
C65      C      0.008260000000     0.394760000000     0.230660000000     0.043262   
C66      C      0.474810000000     0.396870000000     0.275410000000     0.0488     
C67      C      0.009800000000     0.361890000000     0.233410000000     0.0413238  
C68      C      0.474140000000     0.363540000000     0.276830000000     0.0290547  
C69      C      0.491430000000     0.113910000000     0.228480000000     0.0378398  
C70      C      0.525250000000     0.111360000000     0.272890000000     0.0479807  
C71      C      0.491220000000     0.146860000000     0.230600000000     0.0358244  
C72      C      0.527340000000     0.144650000000     0.273630000000     0.021997   
C73      C      0.004680000000     0.064010000000     0.750490000000     0.482124   
C74      C      0.993200000000     0.444550000000     0.751690000000     0.476653   
C75      C      0.058430000000     0.498750000000     0.750670000000     0.477646   
C76      C      0.439010000000     0.510100000000     0.751210000000     0.478601   
C77      C      0.506520000000     0.194490000000     0.754610000000     0.483295   
C78      C      0.495360000000     0.314110000000     0.757560000000     0.484906   
C79      C      0.999410000000     0.252160000000     0.815990000000     0.490573   
C80      C      0.002670000000     0.256350000000     0.696180000000     0.485984   
C81      C      0.188860000000     0.499740000000     0.754000000000     0.485074   
C82      C      0.308470000000     0.510870000000     0.754640000000     0.485554   
C83      C      0.248950000000     0.007210000000     0.694110000000     0.470279   
C84      C      0.248340000000     0.003610000000     0.813960000000     0.489781   
C85      C      0.248980000000     0.009090000000     0.563730000000     0.483156   
C86      C      0.246930000000     0.999150000000     0.944250000000     0.492449   
C87      C      0.252200000000     0.063670000000     0.998980000000     0.493887   
C88      C      0.244360000000     0.444110000000     0.009090000000     0.483809   
C89      C      0.061710000000     0.247740000000     0.501340000000     0.488798   
C90      C      0.442240000000     0.257750000000     0.510720000000     0.488506   
C91      C      0.506350000000     0.255510000000     0.565920000000     0.485842   
C92      C      0.497540000000     0.250060000000     0.946460000000     0.484874   
C93      C      0.258320000000     0.194010000000     0.999870000000     0.493515   
C94      C      0.244720000000     0.313220000000     0.008260000000     0.48554    
C95      C      0.192330000000     0.248150000000     0.498660000000     0.485993   
C96      C      0.311760000000     0.260890000000     0.509960000000     0.487247   
C97      C      0.392700000000     0.239510000000     0.530080000000     0.0490717  
C98      C      0.394730000000     0.284110000000     0.496510000000     0.0581062  
C99      C      0.359730000000     0.242270000000     0.531620000000     0.0431382  
C100     C      0.361440000000     0.285300000000     0.495720000000     0.0353018  
C101     C      0.110900000000     0.224290000000     0.015500000000     0.0443145  
C102     C      0.109340000000     0.266030000000     0.978440000000     0.0565294  
C103     C      0.144030000000     0.225850000000     0.015640000000     0.0359685  
C104     C      0.142550000000     0.265730000000     0.976010000000     0.0305551  
C105     C      0.264260000000     0.395010000000     0.992170000000     0.0568951  
C106     C      0.221290000000     0.395680000000     0.527790000000     0.0530681  
C107     C      0.261980000000     0.362430000000     0.989910000000     0.0544202  
C108     C      0.222060000000     0.362110000000     0.529320000000     0.0309447  
C109     C      0.230660000000     0.113970000000     0.485040000000     0.0441966  
C110     C      0.281170000000     0.110800000000     0.508980000000     0.0573754  
C111     C      0.233240000000     0.147000000000     0.484100000000     0.0394865  
C112     C      0.283000000000     0.143950000000     0.510010000000     0.0338022  
C113     C      0.234030000000     0.025930000000     0.863690000000     0.0542992  
C114     C      0.261080000000     0.476950000000     0.861690000000     0.0626226  
C115     C      0.232390000000     0.023630000000     0.896610000000     0.0348564  
C116     C      0.261030000000     0.475280000000     0.894800000000     0.0356749  
C117     C      0.264140000000     0.485130000000     0.644790000000     0.0392917  
C118     C      0.234450000000     0.032570000000     0.646160000000     0.047408   
C119     C      0.265390000000     0.486900000000     0.611870000000     0.0355831  
C120     C      0.233460000000     0.033230000000     0.612950000000     0.0281872  
C121     C      0.021190000000     0.266470000000     0.865610000000     0.0576818  
C122     C      0.475780000000     0.233770000000     0.863750000000     0.061833   
C123     C      0.019720000000     0.266570000000     0.898490000000     0.0450911  
C124     C      0.475550000000     0.231730000000     0.897000000000     0.0269664  
C125     C      0.480580000000     0.242240000000     0.646670000000     0.0386139  
C126     C      0.527760000000     0.272400000000     0.648470000000     0.0489812  
C127     C      0.482690000000     0.241020000000     0.613820000000     0.0363608  
C128     C      0.528650000000     0.273490000000     0.615210000000     0.0280187  
C129     C      0.107860000000     0.013740000000     0.728870000000     0.0335061  
C130     C      0.106330000000     0.479430000000     0.772990000000     0.0488571  
C131     C      0.140790000000     0.014850000000     0.730910000000     0.0310184  
C132     C      0.139650000000     0.478200000000     0.773540000000     0.0226684  
C133     C      0.389280000000     0.496690000000     0.729020000000     0.0388214  
C134     C      0.391340000000     0.029400000000     0.774300000000     0.0479352  
C135     C      0.356350000000     0.496190000000     0.730910000000     0.0375261  
C136     C      0.358010000000     0.031110000000     0.774920000000     0.0222528  
C137     C      0.008260000000     0.394760000000     0.730660000000     0.0432762  
C138     C      0.474810000000     0.396870000000     0.775410000000     0.0487791  
C139     C      0.009800000000     0.361890000000     0.733410000000     0.0413518  
C140     C      0.474140000000     0.363540000000     0.776820000000     0.0291712  
C141     C      0.491430000000     0.113910000000     0.728480000000     0.0378573  
C142     C      0.525250000000     0.111360000000     0.772890000000     0.0480027  
C143     C      0.491220000000     0.146860000000     0.730600000000     0.035847   
C144     C      0.527340000000     0.144650000000     0.773630000000     0.0220166  
C145     C      0.004680000000     0.564010000000     0.250490000000     0.483156   
C146     C      0.993200000000     0.944560000000     0.251690000000     0.475045   
C147     C      0.058430000000     0.998750000000     0.250670000000     0.485887   
C148     C      0.439010000000     0.010100000000     0.251210000000     0.477059   
C149     C      0.506520000000     0.694490000000     0.254610000000     0.483242   
C150     C      0.495360000000     0.814110000000     0.257560000000     0.485004   
C151     C      0.999410000000     0.752160000000     0.315990000000     0.490565   
C152     C      0.002670000000     0.756350000000     0.196180000000     0.485947   
C153     C      0.188860000000     0.999740000000     0.254010000000     0.494837   
C154     C      0.308470000000     0.010870000000     0.254640000000     0.476196   
C155     C      0.248950000000     0.507210000000     0.194110000000     0.480001   
C156     C      0.248340000000     0.503610000000     0.313960000000     0.499281   
C157     C      0.248980000000     0.509080000000     0.063730000000     0.48392    
C158     C      0.246930000000     0.499150000000     0.444250000000     0.48594    
C159     C      0.252200000000     0.563670000000     0.498980000000     0.488298   
C160     C      0.244360000000     0.944110000000     0.509090000000     0.483434   
C161     C      0.061710000000     0.747740000000     0.001340000000     0.482305   
C162     C      0.442240000000     0.757750000000     0.010730000000     0.487244   
C163     C      0.506350000000     0.755510000000     0.065920000000     0.485266   
C164     C      0.497540000000     0.750060000000     0.446460000000     0.485954   
C165     C      0.258320000000     0.694010000000     0.499870000000     0.485581   
C166     C      0.244720000000     0.813220000000     0.508260000000     0.493238   
C167     C      0.192330000000     0.748150000000     0.998660000000     0.493935   
C168     C      0.311760000000     0.760890000000     0.009960000000     0.479385   
C169     C      0.392700000000     0.739520000000     0.030080000000     0.0482526  
C170     C      0.394730000000     0.784110000000     0.996500000000     0.0638945  
C171     C      0.359730000000     0.742270000000     0.031630000000     0.0414966  
C172     C      0.361440000000     0.785300000000     0.995720000000     0.0384972  
C173     C      0.110900000000     0.724290000000     0.515500000000     0.049489   
C174     C      0.109340000000     0.766030000000     0.478440000000     0.0556174  
C175     C      0.144030000000     0.725850000000     0.515640000000     0.0402766  
C176     C      0.142550000000     0.765730000000     0.476010000000     0.0290132  
C177     C      0.264260000000     0.895010000000     0.492170000000     0.0514981  
C178     C      0.221290000000     0.895680000000     0.027790000000     0.0523409  
C179     C      0.261980000000     0.862430000000     0.489920000000     0.0499655  
C180     C      0.222060000000     0.862110000000     0.029320000000     0.029931   
C181     C      0.230660000000     0.613970000000     0.985040000000     0.045595   
C182     C      0.281170000000     0.610800000000     0.008990000000     0.0524815  
C183     C      0.233240000000     0.647000000000     0.984100000000     0.0410683  
C184     C      0.283000000000     0.643950000000     0.010010000000     0.0305237  
C185     C      0.234030000000     0.525930000000     0.363690000000     0.0534998  
C186     C      0.261080000000     0.976950000000     0.361690000000     0.0703882  
C187     C      0.232390000000     0.523630000000     0.396610000000     0.04255    
C188     C      0.261030000000     0.975280000000     0.394800000000     0.0348238  
C189     C      0.264140000000     0.985130000000     0.144790000000     0.0448016  
C190     C      0.234450000000     0.532570000000     0.146160000000     0.0488781  
C191     C      0.265390000000     0.986900000000     0.111870000000     0.0420442  
C192     C      0.233460000000     0.533230000000     0.112950000000     0.0289563  
C193     C      0.021190000000     0.766470000000     0.365610000000     0.0575718  
C194     C      0.475780000000     0.733770000000     0.363750000000     0.0617922  
C195     C      0.019720000000     0.766570000000     0.398500000000     0.0449943  
C196     C      0.475550000000     0.731730000000     0.397000000000     0.0268536  
C197     C      0.480580000000     0.742240000000     0.146670000000     0.0386655  
C198     C      0.527760000000     0.772400000000     0.148460000000     0.0489919  
C199     C      0.482690000000     0.741010000000     0.113820000000     0.0362522  
C200     C      0.528650000000     0.773490000000     0.115220000000     0.0279992  
C201     C      0.107860000000     0.513740000000     0.228880000000     0.0392672  
C202     C      0.106330000000     0.979430000000     0.272990000000     0.050247   
C203     C      0.140790000000     0.514850000000     0.230900000000     0.0365045  
C204     C      0.139650000000     0.978200000000     0.273540000000     0.0241051  
C205     C      0.389280000000     0.996690000000     0.229020000000     0.0454429  
C206     C      0.391340000000     0.529400000000     0.274300000000     0.0490224  
C207     C      0.356350000000     0.996190000000     0.230910000000     0.0432407  
C208     C      0.358010000000     0.531110000000     0.274920000000     0.0235672  
C209     C      0.008260000000     0.894760000000     0.230660000000     0.0433333  
C210     C      0.474810000000     0.896870000000     0.275410000000     0.0488869  
C211     C      0.009800000000     0.861890000000     0.233410000000     0.0415367  
C212     C      0.474140000000     0.863540000000     0.276830000000     0.0293019  
C213     C      0.491430000000     0.613910000000     0.228480000000     0.0379577  
C214     C      0.525250000000     0.611360000000     0.272890000000     0.0481469  
C215     C      0.491220000000     0.646860000000     0.230600000000     0.0358744  
C216     C      0.527340000000     0.644650000000     0.273630000000     0.0220558  
C217     C      0.004680000000     0.564010000000     0.750490000000     0.483136   
C218     C      0.993200000000     0.944560000000     0.751690000000     0.475027   
C219     C      0.058430000000     0.998750000000     0.750670000000     0.485845   
C220     C      0.439010000000     0.010100000000     0.751210000000     0.477039   
C221     C      0.506520000000     0.694490000000     0.754610000000     0.483275   
C222     C      0.495360000000     0.814110000000     0.757560000000     0.485006   
C223     C      0.999410000000     0.752160000000     0.815990000000     0.490567   
C224     C      0.002670000000     0.756350000000     0.696180000000     0.485951   
C225     C      0.188860000000     0.999740000000     0.754000000000     0.494818   
C226     C      0.308470000000     0.010870000000     0.754640000000     0.476204   
C227     C      0.248950000000     0.507210000000     0.694110000000     0.479862   
C228     C      0.248340000000     0.503610000000     0.813960000000     0.499289   
C229     C      0.248980000000     0.509080000000     0.563730000000     0.484725   
C230     C      0.246930000000     0.499150000000     0.944250000000     0.484499   
C231     C      0.252200000000     0.563670000000     0.998980000000     0.495075   
C232     C      0.244360000000     0.944110000000     0.009090000000     0.482153   
C233     C      0.061710000000     0.747740000000     0.501340000000     0.488772   
C234     C      0.442240000000     0.757750000000     0.510720000000     0.488479   
C235     C      0.506350000000     0.755510000000     0.565920000000     0.485817   
C236     C      0.497540000000     0.750060000000     0.946460000000     0.484847   
C237     C      0.258320000000     0.694010000000     0.999870000000     0.493483   
C238     C      0.244720000000     0.813220000000     0.008260000000     0.48557    
C239     C      0.192330000000     0.748150000000     0.498660000000     0.485979   
C240     C      0.311760000000     0.760890000000     0.509960000000     0.487234   
C241     C      0.392700000000     0.739520000000     0.530080000000     0.0491011  
C242     C      0.394730000000     0.784110000000     0.496510000000     0.0581992  
C243     C      0.359730000000     0.742270000000     0.531620000000     0.0431572  
C244     C      0.361440000000     0.785300000000     0.495720000000     0.0353636  
C245     C      0.110900000000     0.724290000000     0.015500000000     0.0442856  
C246     C      0.109340000000     0.766030000000     0.978440000000     0.0566229  
C247     C      0.144030000000     0.725850000000     0.015640000000     0.0360469  
C248     C      0.142550000000     0.765730000000     0.976010000000     0.0305071  
C249     C      0.264260000000     0.895010000000     0.992170000000     0.0569276  
C250     C      0.221290000000     0.895680000000     0.527790000000     0.0532439  
C251     C      0.261980000000     0.862430000000     0.989910000000     0.054535   
C252     C      0.222060000000     0.862110000000     0.529320000000     0.0311305  
C253     C      0.230660000000     0.613970000000     0.485040000000     0.0443594  
C254     C      0.281170000000     0.610800000000     0.508980000000     0.057561   
C255     C      0.233240000000     0.647000000000     0.484100000000     0.0395194  
C256     C      0.283000000000     0.643950000000     0.510010000000     0.0338454  
C257     C      0.234030000000     0.525930000000     0.863690000000     0.0536374  
C258     C      0.261080000000     0.976950000000     0.861690000000     0.0703972  
C259     C      0.232390000000     0.523630000000     0.896610000000     0.0426998  
C260     C      0.261030000000     0.975280000000     0.894800000000     0.0350544  
C261     C      0.264140000000     0.985130000000     0.644790000000     0.0448226  
C262     C      0.234450000000     0.532570000000     0.646160000000     0.048861   
C263     C      0.265390000000     0.986900000000     0.611870000000     0.0421193  
C264     C      0.233460000000     0.533230000000     0.612950000000     0.0290461  
C265     C      0.021190000000     0.766470000000     0.865610000000     0.0576878  
C266     C      0.475780000000     0.733770000000     0.863750000000     0.061837   
C267     C      0.019720000000     0.766570000000     0.898490000000     0.0451295  
C268     C      0.475550000000     0.731730000000     0.897000000000     0.0270024  
C269     C      0.480580000000     0.742240000000     0.646670000000     0.0386931  
C270     C      0.527760000000     0.772400000000     0.648470000000     0.0490253  
C271     C      0.482690000000     0.741010000000     0.613820000000     0.0363671  
C272     C      0.528650000000     0.773490000000     0.615210000000     0.0281025  
C273     C      0.107860000000     0.513740000000     0.728870000000     0.0391576  
C274     C      0.106330000000     0.979430000000     0.772990000000     0.050251   
C275     C      0.140790000000     0.514850000000     0.730910000000     0.0366466  
C276     C      0.139650000000     0.978200000000     0.773540000000     0.0241544  
C277     C      0.389280000000     0.996690000000     0.729020000000     0.045445   
C278     C      0.391340000000     0.529400000000     0.774300000000     0.0490436  
C279     C      0.356350000000     0.996190000000     0.730910000000     0.0432442  
C280     C      0.358010000000     0.531110000000     0.774920000000     0.0235745  
C281     C      0.008260000000     0.894760000000     0.730660000000     0.0433472  
C282     C      0.474810000000     0.896870000000     0.775410000000     0.0488657  
C283     C      0.009800000000     0.861890000000     0.733410000000     0.0415642  
C284     C      0.474140000000     0.863540000000     0.776820000000     0.0294177  
C285     C      0.491430000000     0.613910000000     0.728480000000     0.0379751  
C286     C      0.525250000000     0.611360000000     0.772890000000     0.0481685  
C287     C      0.491220000000     0.646860000000     0.730600000000     0.035897   
C288     C      0.527340000000     0.644650000000     0.773630000000     0.0220753  
C289     C      0.504680000000     0.064010000000     0.250490000000     0.476401   
C290     C      0.493200000000     0.444550000000     0.251690000000     0.477769   
C291     C      0.558430000000     0.498750000000     0.250670000000     0.478829   
C292     C      0.939010000000     0.510100000000     0.251210000000     0.477869   
C293     C      0.006530000000     0.194490000000     0.254610000000     0.490025   
C294     C      0.995360000000     0.314110000000     0.257560000000     0.478388   
C295     C      0.499410000000     0.252160000000     0.315990000000     0.49715    
C296     C      0.502670000000     0.256350000000     0.196180000000     0.479152   
C297     C      0.688860000000     0.499740000000     0.254010000000     0.485053   
C298     C      0.808470000000     0.510870000000     0.254640000000     0.485565   
C299     C      0.748950000000     0.007210000000     0.194110000000     0.47037    
C300     C      0.748340000000     0.003610000000     0.313960000000     0.489737   
C301     C      0.748980000000     0.009090000000     0.063730000000     0.482375   
C302     C      0.746930000000     0.999150000000     0.444250000000     0.494307   
C303     C      0.752200000000     0.063670000000     0.498980000000     0.48713    
C304     C      0.744360000000     0.444110000000     0.509090000000     0.485119   
C305     C      0.561710000000     0.247740000000     0.001340000000     0.482659   
C306     C      0.942240000000     0.257750000000     0.010730000000     0.487182   
C307     C      0.006350000000     0.255510000000     0.065920000000     0.485132   
C308     C      0.997540000000     0.250060000000     0.446460000000     0.479138   
C309     C      0.758320000000     0.194010000000     0.499870000000     0.485612   
C310     C      0.744720000000     0.313220000000     0.508260000000     0.493252   
C311     C      0.692330000000     0.248150000000     0.998660000000     0.493908   
C312     C      0.811760000000     0.260890000000     0.009960000000     0.479403   
C313     C      0.892700000000     0.239510000000     0.030080000000     0.0480342  
C314     C      0.894730000000     0.284110000000     0.996500000000     0.063748   
C315     C      0.859730000000     0.242270000000     0.031630000000     0.0414357  
C316     C      0.861440000000     0.285300000000     0.995720000000     0.0383347  
C317     C      0.610900000000     0.224290000000     0.515500000000     0.0494725  
C318     C      0.609340000000     0.266030000000     0.478440000000     0.0553684  
C319     C      0.644030000000     0.225850000000     0.515640000000     0.0400896  
C320     C      0.642550000000     0.265730000000     0.476010000000     0.0290012  
C321     C      0.764260000000     0.395010000000     0.492170000000     0.0514137  
C322     C      0.721290000000     0.395680000000     0.027790000000     0.0521503  
C323     C      0.761980000000     0.362430000000     0.489920000000     0.0498201  
C324     C      0.722060000000     0.362110000000     0.029320000000     0.0297085  
C325     C      0.730660000000     0.113970000000     0.985040000000     0.0454165  
C326     C      0.781170000000     0.110800000000     0.008990000000     0.0522928  
C327     C      0.733240000000     0.147000000000     0.984100000000     0.0410056  
C328     C      0.783000000000     0.143950000000     0.010010000000     0.0304644  
C329     C      0.734030000000     0.025930000000     0.363690000000     0.0541406  
C330     C      0.761080000000     0.476950000000     0.361690000000     0.0625749  
C331     C      0.732390000000     0.023630000000     0.396610000000     0.0346177  
C332     C      0.761030000000     0.475280000000     0.394800000000     0.0354119  
C333     C      0.764140000000     0.485130000000     0.144790000000     0.0392436  
C334     C      0.734440000000     0.032570000000     0.146160000000     0.0473316  
C335     C      0.765390000000     0.486900000000     0.111870000000     0.0354599  
C336     C      0.733460000000     0.033230000000     0.112950000000     0.0280718  
C337     C      0.521190000000     0.266470000000     0.365610000000     0.0535759  
C338     C      0.975780000000     0.233770000000     0.363750000000     0.0607034  
C339     C      0.519720000000     0.266570000000     0.398500000000     0.0408882  
C340     C      0.975550000000     0.231730000000     0.397000000000     0.0259368  
C341     C      0.980580000000     0.242240000000     0.146670000000     0.0349405  
C342     C      0.027760000000     0.272400000000     0.148460000000     0.0500526  
C343     C      0.982680000000     0.241020000000     0.113820000000     0.0316094  
C344     C      0.028650000000     0.273490000000     0.115220000000     0.0285573  
C345     C      0.607860000000     0.013740000000     0.228880000000     0.0335039  
C346     C      0.606320000000     0.479430000000     0.272990000000     0.0488088  
C347     C      0.640790000000     0.014850000000     0.230900000000     0.0306991  
C348     C      0.639650000000     0.478200000000     0.273540000000     0.0224732  
C349     C      0.889280000000     0.496690000000     0.229020000000     0.0387114  
C350     C      0.891340000000     0.029400000000     0.274300000000     0.0477793  
C351     C      0.856350000000     0.496190000000     0.230910000000     0.0374628  
C352     C      0.858010000000     0.031110000000     0.274920000000     0.0222079  
C353     C      0.508260000000     0.394760000000     0.230660000000     0.038642   
C354     C      0.974810000000     0.396870000000     0.275410000000     0.0479629  
C355     C      0.509800000000     0.361890000000     0.233410000000     0.0374236  
C356     C      0.974140000000     0.363540000000     0.276830000000     0.028137   
C357     C      0.991430000000     0.113910000000     0.228480000000     0.0338154  
C358     C      0.025250000000     0.111360000000     0.272890000000     0.0489806  
C359     C      0.991220000000     0.146860000000     0.230600000000     0.0319116  
C360     C      0.027330000000     0.144650000000     0.273630000000     0.0230798  
C361     C      0.504680000000     0.064010000000     0.750490000000     0.476382   
C362     C      0.493200000000     0.444550000000     0.751690000000     0.477748   
C363     C      0.558430000000     0.498750000000     0.750670000000     0.478802   
C364     C      0.939010000000     0.510100000000     0.751210000000     0.477846   
C365     C      0.006530000000     0.194490000000     0.754610000000     0.490055   
C366     C      0.995360000000     0.314110000000     0.757560000000     0.478388   
C367     C      0.499410000000     0.252160000000     0.815990000000     0.497151   
C368     C      0.502670000000     0.256350000000     0.696180000000     0.479155   
C369     C      0.688860000000     0.499740000000     0.754000000000     0.485056   
C370     C      0.808470000000     0.510870000000     0.754640000000     0.485555   
C371     C      0.748950000000     0.007210000000     0.694110000000     0.470244   
C372     C      0.748340000000     0.003610000000     0.813960000000     0.489769   
C373     C      0.748980000000     0.009090000000     0.563730000000     0.483177   
C374     C      0.746930000000     0.999150000000     0.944250000000     0.492817   
C375     C      0.752200000000     0.063670000000     0.998980000000     0.493913   
C376     C      0.744360000000     0.444110000000     0.009090000000     0.483833   
C377     C      0.561710000000     0.247740000000     0.501340000000     0.489158   
C378     C      0.942240000000     0.257750000000     0.510720000000     0.488417   
C379     C      0.006350000000     0.255510000000     0.565920000000     0.485681   
C380     C      0.997540000000     0.250060000000     0.946460000000     0.478051   
C381     C      0.758320000000     0.194010000000     0.999870000000     0.493534   
C382     C      0.744720000000     0.313220000000     0.008260000000     0.485562   
C383     C      0.692330000000     0.248150000000     0.498660000000     0.485921   
C384     C      0.811760000000     0.260890000000     0.509960000000     0.487264   
C385     C      0.892700000000     0.239510000000     0.530080000000     0.0488824  
C386     C      0.894730000000     0.284110000000     0.496510000000     0.0580484  
C387     C      0.859730000000     0.242270000000     0.531620000000     0.0430971  
C388     C      0.861440000000     0.285300000000     0.495720000000     0.0351936  
C389     C      0.610900000000     0.224290000000     0.015500000000     0.0442439  
C390     C      0.609340000000     0.266030000000     0.978440000000     0.0563818  
C391     C      0.644030000000     0.225850000000     0.015640000000     0.0358484  
C392     C      0.642550000000     0.265730000000     0.976010000000     0.0305022  
C393     C      0.764260000000     0.395010000000     0.992170000000     0.0568761  
C394     C      0.721290000000     0.395680000000     0.527790000000     0.053056   
C395     C      0.761980000000     0.362430000000     0.989910000000     0.054409   
C396     C      0.722060000000     0.362110000000     0.529320000000     0.0309128  
C397     C      0.730660000000     0.113970000000     0.485040000000     0.0441774  
C398     C      0.781170000000     0.110800000000     0.508980000000     0.0573721  
C399     C      0.733240000000     0.147000000000     0.484100000000     0.039453   
C400     C      0.783000000000     0.143950000000     0.510010000000     0.0337895  
C401     C      0.734030000000     0.025930000000     0.863690000000     0.0542734  
C402     C      0.761080000000     0.476950000000     0.861690000000     0.0626124  
C403     C      0.732390000000     0.023630000000     0.896610000000     0.0348018  
C404     C      0.761030000000     0.475280000000     0.894800000000     0.0356425  
C405     C      0.764140000000     0.485130000000     0.644790000000     0.0392697  
C406     C      0.734440000000     0.032570000000     0.646160000000     0.0473173  
C407     C      0.765390000000     0.486900000000     0.611870000000     0.0355379  
C408     C      0.733460000000     0.033230000000     0.612950000000     0.0281608  
C409     C      0.521190000000     0.266470000000     0.865610000000     0.0536976  
C410     C      0.975780000000     0.233770000000     0.863750000000     0.0607492  
C411     C      0.519720000000     0.266570000000     0.898490000000     0.041037   
C412     C      0.975550000000     0.231730000000     0.897000000000     0.0260862  
C413     C      0.980580000000     0.242240000000     0.646670000000     0.034965   
C414     C      0.027760000000     0.272400000000     0.648470000000     0.0500867  
C415     C      0.982680000000     0.241020000000     0.613820000000     0.0317125  
C416     C      0.028650000000     0.273490000000     0.615210000000     0.0286609  
C417     C      0.607860000000     0.013740000000     0.728870000000     0.0334083  
C418     C      0.606320000000     0.479430000000     0.772990000000     0.0488161  
C419     C      0.640790000000     0.014850000000     0.730910000000     0.0308481  
C420     C      0.639650000000     0.478200000000     0.773540000000     0.022527   
C421     C      0.889280000000     0.496690000000     0.729020000000     0.0387281  
C422     C      0.891340000000     0.029400000000     0.774300000000     0.0478024  
C423     C      0.856350000000     0.496190000000     0.730910000000     0.0374795  
C424     C      0.858010000000     0.031110000000     0.774920000000     0.0222177  
C425     C      0.508260000000     0.394760000000     0.730660000000     0.0386575  
C426     C      0.974810000000     0.396870000000     0.775410000000     0.0479415  
C427     C      0.509800000000     0.361890000000     0.733410000000     0.0374531  
C428     C      0.974140000000     0.363540000000     0.776820000000     0.028253   
C429     C      0.991430000000     0.113910000000     0.728480000000     0.0338314  
C430     C      0.025250000000     0.111360000000     0.772890000000     0.0490018  
C431     C      0.991220000000     0.146860000000     0.730600000000     0.0319328  
C432     C      0.027330000000     0.144650000000     0.773630000000     0.0230985  
C433     C      0.504680000000     0.564010000000     0.250490000000     0.477426   
C434     C      0.493200000000     0.944560000000     0.251690000000     0.476134   
C435     C      0.558430000000     0.998750000000     0.250670000000     0.487097   
C436     C      0.939010000000     0.010100000000     0.251210000000     0.476307   
C437     C      0.006530000000     0.694490000000     0.254610000000     0.489983   
C438     C      0.995360000000     0.814110000000     0.257560000000     0.478513   
C439     C      0.499410000000     0.752160000000     0.315990000000     0.497123   
C440     C      0.502670000000     0.756350000000     0.196180000000     0.479146   
C441     C      0.688860000000     0.999740000000     0.254010000000     0.494853   
C442     C      0.808470000000     0.010870000000     0.254640000000     0.476182   
C443     C      0.748950000000     0.507210000000     0.194110000000     0.479988   
C444     C      0.748340000000     0.503610000000     0.313960000000     0.499291   
C445     C      0.748980000000     0.509080000000     0.063730000000     0.483943   
C446     C      0.746930000000     0.499150000000     0.444250000000     0.486281   
C447     C      0.752200000000     0.563670000000     0.498980000000     0.488328   
C448     C      0.744360000000     0.944110000000     0.509090000000     0.483454   
C449     C      0.561710000000     0.747740000000     0.001340000000     0.482648   
C450     C      0.942240000000     0.757750000000     0.010730000000     0.487158   
C451     C      0.006350000000     0.755510000000     0.065920000000     0.485109   
C452     C      0.997540000000     0.750060000000     0.446460000000     0.479134   
C453     C      0.758320000000     0.694010000000     0.499870000000     0.485597   
C454     C      0.744720000000     0.813220000000     0.508260000000     0.493258   
C455     C      0.692330000000     0.748150000000     0.998660000000     0.49387    
C456     C      0.811760000000     0.760890000000     0.009960000000     0.479409   
C457     C      0.892700000000     0.739520000000     0.030080000000     0.048066   
C458     C      0.894730000000     0.784110000000     0.996500000000     0.063825   
C459     C      0.859730000000     0.742270000000     0.031630000000     0.0414584  
C460     C      0.861440000000     0.785300000000     0.995720000000     0.0383873  
C461     C      0.610900000000     0.724290000000     0.515500000000     0.0494295  
C462     C      0.609340000000     0.766030000000     0.478440000000     0.0554676  
C463     C      0.644030000000     0.725850000000     0.515640000000     0.0401599  
C464     C      0.642550000000     0.765730000000     0.476010000000     0.0289576  
C465     C      0.764260000000     0.895010000000     0.492170000000     0.0514782  
C466     C      0.721290000000     0.895680000000     0.027790000000     0.05233    
C467     C      0.761980000000     0.862430000000     0.489920000000     0.0499537  
C468     C      0.722060000000     0.862110000000     0.029320000000     0.0298995  
C469     C      0.730660000000     0.613970000000     0.985040000000     0.045577   
C470     C      0.781170000000     0.610800000000     0.008990000000     0.0524798  
C471     C      0.733240000000     0.647000000000     0.984100000000     0.0410358  
C472     C      0.783000000000     0.643950000000     0.010010000000     0.0305117  
C473     C      0.734030000000     0.525930000000     0.363690000000     0.0534724  
C474     C      0.761080000000     0.976950000000     0.361690000000     0.0703974  
C475     C      0.732390000000     0.523630000000     0.396610000000     0.0425146  
C476     C      0.761030000000     0.975280000000     0.394800000000     0.0347903  
C477     C      0.764140000000     0.985130000000     0.144790000000     0.0447936  
C478     C      0.734440000000     0.532570000000     0.146160000000     0.0487909  
C479     C      0.765390000000     0.986900000000     0.111870000000     0.0420163  
C480     C      0.733460000000     0.533230000000     0.112950000000     0.0289317  
C481     C      0.521190000000     0.766470000000     0.365610000000     0.0535976  
C482     C      0.975780000000     0.733770000000     0.363750000000     0.0607104  
C483     C      0.519720000000     0.766570000000     0.398500000000     0.0409427  
C484     C      0.975550000000     0.731730000000     0.397000000000     0.0259753  
C485     C      0.980580000000     0.742240000000     0.146670000000     0.0350316  
C486     C      0.027760000000     0.772400000000     0.148460000000     0.0500918  
C487     C      0.982680000000     0.741010000000     0.113820000000     0.031632   
C488     C      0.028650000000     0.773490000000     0.115220000000     0.0286379  
C489     C      0.607860000000     0.513740000000     0.228880000000     0.0391977  
C490     C      0.606320000000     0.979430000000     0.272990000000     0.0502127  
C491     C      0.640790000000     0.514850000000     0.230900000000     0.0363535  
C492     C      0.639650000000     0.978200000000     0.273540000000     0.0239713  
C493     C      0.889280000000     0.996690000000     0.229020000000     0.0453542  
C494     C      0.891340000000     0.529400000000     0.274300000000     0.0488902  
C495     C      0.856350000000     0.996190000000     0.230910000000     0.0432046  
C496     C      0.858010000000     0.531110000000     0.274920000000     0.0235331  
C497     C      0.508260000000     0.894760000000     0.230660000000     0.0387463  
C498     C      0.974810000000     0.896870000000     0.275410000000     0.0480534  
C499     C      0.509800000000     0.861890000000     0.233410000000     0.0376567  
C500     C      0.974140000000     0.863540000000     0.276830000000     0.0283886  
C501     C      0.991430000000     0.613910000000     0.228480000000     0.0339378  
C502     C      0.025250000000     0.611360000000     0.272890000000     0.0491435  
C503     C      0.991220000000     0.646860000000     0.230600000000     0.0319702  
C504     C      0.027330000000     0.644650000000     0.273630000000     0.0231355  
C505     C      0.504680000000     0.564010000000     0.750490000000     0.477405   
C506     C      0.493200000000     0.944560000000     0.751690000000     0.476117   
C507     C      0.558430000000     0.998750000000     0.750670000000     0.487055   
C508     C      0.939010000000     0.010100000000     0.751210000000     0.476287   
C509     C      0.006530000000     0.694490000000     0.754610000000     0.490013   
C510     C      0.995360000000     0.814110000000     0.757560000000     0.478513   
C511     C      0.499410000000     0.752160000000     0.815990000000     0.497124   
C512     C      0.502670000000     0.756350000000     0.696180000000     0.479149   
C513     C      0.688860000000     0.999740000000     0.754000000000     0.494834   
C514     C      0.808470000000     0.010870000000     0.754640000000     0.47619    
C515     C      0.748950000000     0.507210000000     0.694110000000     0.479849   
C516     C      0.748340000000     0.503610000000     0.813960000000     0.499299   
C517     C      0.748980000000     0.509080000000     0.563730000000     0.484748   
C518     C      0.746930000000     0.499150000000     0.944250000000     0.484837   
C519     C      0.752200000000     0.563670000000     0.998980000000     0.495103   
C520     C      0.744360000000     0.944110000000     0.009090000000     0.482174   
C521     C      0.561710000000     0.747740000000     0.501340000000     0.489132   
C522     C      0.942240000000     0.757750000000     0.510720000000     0.48839    
C523     C      0.006350000000     0.755510000000     0.565920000000     0.485656   
C524     C      0.997540000000     0.750060000000     0.946460000000     0.478048   
C525     C      0.758320000000     0.694010000000     0.999870000000     0.493501   
C526     C      0.744720000000     0.813220000000     0.008260000000     0.485591   
C527     C      0.692330000000     0.748150000000     0.498660000000     0.485907   
C528     C      0.811760000000     0.760890000000     0.509960000000     0.48725    
C529     C      0.892700000000     0.739520000000     0.530080000000     0.0489123  
C530     C      0.894730000000     0.784110000000     0.496510000000     0.0581417  
C531     C      0.859730000000     0.742270000000     0.531620000000     0.0431164  
C532     C      0.861440000000     0.785300000000     0.495720000000     0.0352559  
C533     C      0.610900000000     0.724290000000     0.015500000000     0.0442153  
C534     C      0.609340000000     0.766030000000     0.978440000000     0.0564759  
C535     C      0.644030000000     0.725850000000     0.015640000000     0.0359272  
C536     C      0.642550000000     0.765730000000     0.976010000000     0.0304544  
C537     C      0.764260000000     0.895010000000     0.992170000000     0.0569088  
C538     C      0.721290000000     0.895680000000     0.527790000000     0.0532327  
C539     C      0.761980000000     0.862430000000     0.989910000000     0.0545241  
C540     C      0.722060000000     0.862110000000     0.529320000000     0.0310992  
C541     C      0.730660000000     0.613970000000     0.485040000000     0.0443406  
C542     C      0.781170000000     0.610800000000     0.508980000000     0.057558   
C543     C      0.733240000000     0.647000000000     0.484100000000     0.039486   
C544     C      0.783000000000     0.643950000000     0.510010000000     0.0338326  
C545     C      0.734030000000     0.525930000000     0.863690000000     0.0536101  
C546     C      0.761080000000     0.976950000000     0.861690000000     0.0704064  
C547     C      0.732390000000     0.523630000000     0.896610000000     0.0426645  
C548     C      0.761030000000     0.975280000000     0.894800000000     0.0350209  
C549     C      0.764140000000     0.985130000000     0.644790000000     0.0448145  
C550     C      0.734440000000     0.532570000000     0.646160000000     0.0487738  
C551     C      0.765390000000     0.986900000000     0.611870000000     0.0420912  
C552     C      0.733460000000     0.533230000000     0.612950000000     0.0290214  
C553     C      0.521190000000     0.766470000000     0.865610000000     0.0537189  
C554     C      0.975780000000     0.733770000000     0.863750000000     0.0607561  
C555     C      0.519720000000     0.766570000000     0.898490000000     0.0410909  
C556     C      0.975550000000     0.731730000000     0.897000000000     0.0261244  
C557     C      0.980580000000     0.742240000000     0.646670000000     0.035056   
C558     C      0.027760000000     0.772400000000     0.648470000000     0.0501259  
C559     C      0.982680000000     0.741010000000     0.613820000000     0.0317349  
C560     C      0.028650000000     0.773490000000     0.615210000000     0.0287413  
C561     C      0.607860000000     0.513740000000     0.728870000000     0.039088   
C562     C      0.606320000000     0.979430000000     0.772990000000     0.0502168  
C563     C      0.640790000000     0.514850000000     0.730910000000     0.0364957  
C564     C      0.639650000000     0.978200000000     0.773540000000     0.0240208  
C565     C      0.889280000000     0.996690000000     0.729020000000     0.0453561  
C566     C      0.891340000000     0.529400000000     0.774300000000     0.0489113  
C567     C      0.856350000000     0.996190000000     0.730910000000     0.0432079  
C568     C      0.858010000000     0.531110000000     0.774920000000     0.0235403  
C569     C      0.508260000000     0.894760000000     0.730660000000     0.0387616  
C570     C      0.974810000000     0.896870000000     0.775410000000     0.0480317  
C571     C      0.509800000000     0.861890000000     0.733410000000     0.0376858  
C572     C      0.974140000000     0.863540000000     0.776820000000     0.0285038  
C573     C      0.991430000000     0.613910000000     0.728480000000     0.0339538  
C574     C      0.025250000000     0.611360000000     0.772890000000     0.0491644  
C575     C      0.991220000000     0.646860000000     0.730600000000     0.0319914  
C576     C      0.027330000000     0.644650000000     0.773630000000     0.0231541  
H1       H      0.346910000000     0.225810000000     0.046510000000     0.0532325  
H2       H      0.404200000000     0.221150000000     0.043950000000     0.0367633  
H3       H      0.408280000000     0.301560000000     0.983360000000     0.0576535  
H4       H      0.359820000000     0.363920000000     0.959420000000     0.167138   
H5       H      0.156790000000     0.209830000000     0.531210000000     0.0415277  
H6       H      0.099210000000     0.207680000000     0.531270000000     0.042883   
H7       H      0.095770000000     0.282250000000     0.463840000000     0.0443868  
H8       H      0.127120000000     0.332070000000     0.446470000000     0.163086   
H9       H      0.277570000000     0.350780000000     0.473180000000     0.0597205  
H10      H      0.282110000000     0.406720000000     0.477920000000     0.0565452  
H11      H      0.204530000000     0.408760000000     0.042210000000     0.0424356  
H12      H      0.176400000000     0.378120000000     0.087110000000     0.156546   
H13      H      0.213780000000     0.160610000000     0.974130000000     0.0357922  
H14      H      0.209530000000     0.103060000000     0.975230000000     0.0416416  
H15      H      0.300530000000     0.097030000000     0.018830000000     0.0584174  
H16      H      0.364980000000     0.145990000000     0.038180000000     0.161284   
H17      H      0.220890000000     0.042590000000     0.409690000000     0.0372341  
H18      H      0.223070000000     0.046240000000     0.352360000000     0.0453711  
H19      H      0.272000000000     0.457880000000     0.348370000000     0.0612423  
H20      H      0.291090000000     0.393950000000     0.397020000000     0.168155   
H21      H      0.277970000000     0.468360000000     0.099190000000     0.0370395  
H22      H      0.276380000000     0.465750000000     0.156460000000     0.0377911  
H23      H      0.222380000000     0.051020000000     0.159390000000     0.0519432  
H24      H      0.196500000000     0.111690000000     0.109280000000     0.165955   
H25      H      0.037460000000     0.280150000000     0.411310000000     0.0420418  
H26      H      0.039630000000     0.280360000000     0.354250000000     0.0488062  
H27      H      0.458040000000     0.220930000000     0.350310000000     0.0491134  
H28      H      0.425630000000     0.178380000000     0.379530000000     0.160317   
H29      H      0.464490000000     0.228070000000     0.100990000000     0.0339646  
H30      H      0.461250000000     0.229720000000     0.158130000000     0.0368778  
H31      H      0.545960000000     0.284630000000     0.161890000000     0.0516368  
H32      H      0.105500000000     0.313790000000     0.111770000000     0.174379   
H33      H      0.153520000000     0.029550000000     0.214050000000     0.0380518  
H34      H      0.096260000000     0.028040000000     0.210930000000     0.0397498  
H35      H      0.092910000000     0.465750000000     0.290100000000     0.045613   
H36      H      0.123260000000     0.420180000000     0.317400000000     0.159154   
H37      H      0.343420000000     0.482360000000     0.213470000000     0.0359251  
H38      H      0.400610000000     0.482840000000     0.210560000000     0.0389816  
H39      H      0.404940000000     0.042270000000     0.291880000000     0.0453198  
H40      H      0.375310000000     0.086640000000     0.321770000000     0.157509   
H41      H      0.024260000000     0.348950000000     0.216500000000     0.0380252  
H42      H      0.022060000000     0.406100000000     0.212170000000     0.0404506  
H43      H      0.461230000000     0.410450000000     0.292480000000     0.0544821  
H44      H      0.427400000000     0.361050000000     0.349790000000     0.171343   
H45      H      0.477000000000     0.159980000000     0.213630000000     0.0353917  
H46      H      0.477030000000     0.102760000000     0.210340000000     0.037369   
H47      H      0.538470000000     0.097560000000     0.290050000000     0.0446149  
H48      H      0.584740000000     0.126440000000     0.317700000000     0.156406   
H49      H      0.346910000000     0.225810000000     0.546510000000     0.053348   
H50      H      0.404200000000     0.221150000000     0.543940000000     0.0370577  
H51      H      0.408280000000     0.301560000000     0.483360000000     0.057426   
H52      H      0.359820000000     0.363920000000     0.459420000000     0.166152   
H53      H      0.156790000000     0.209830000000     0.031210000000     0.0413526  
H54      H      0.099210000000     0.207680000000     0.031270000000     0.0434893  
H55      H      0.095770000000     0.282250000000     0.963840000000     0.0455944  
H56      H      0.127120000000     0.332070000000     0.946470000000     0.164169   
H57      H      0.277570000000     0.350780000000     0.973180000000     0.0597387  
H58      H      0.282110000000     0.406720000000     0.977920000000     0.0567996  
H59      H      0.204530000000     0.408760000000     0.542200000000     0.0426388  
H60      H      0.176400000000     0.378120000000     0.587110000000     0.156516   
H61      H      0.213780000000     0.160610000000     0.474130000000     0.035228   
H62      H      0.209530000000     0.103060000000     0.475230000000     0.0409857  
H63      H      0.300530000000     0.097030000000     0.518830000000     0.0580482  
H64      H      0.364980000000     0.145990000000     0.538180000000     0.162161   
H65      H      0.220890000000     0.042590000000     0.909690000000     0.0376436  
H66      H      0.223070000000     0.046240000000     0.852360000000     0.0454977  
H67      H      0.272000000000     0.457880000000     0.848370000000     0.061279   
H68      H      0.291090000000     0.393950000000     0.897020000000     0.168255   
H69      H      0.277970000000     0.468360000000     0.599190000000     0.0372105  
H70      H      0.276380000000     0.465750000000     0.656460000000     0.0378452  
H71      H      0.222380000000     0.051020000000     0.659390000000     0.0519507  
H72      H      0.196500000000     0.111690000000     0.609280000000     0.166291   
H73      H      0.037460000000     0.280150000000     0.911310000000     0.0426325  
H74      H      0.039630000000     0.280360000000     0.854250000000     0.0489194  
H75      H      0.458040000000     0.220930000000     0.850310000000     0.0491351  
H76      H      0.425630000000     0.178380000000     0.879530000000     0.16055    
H77      H      0.464490000000     0.228070000000     0.601000000000     0.0340565  
H78      H      0.461250000000     0.229720000000     0.658130000000     0.0369175  
H79      H      0.545960000000     0.284630000000     0.661890000000     0.0516328  
H80      H      0.105500000000     0.313790000000     0.611770000000     0.174555   
H81      H      0.153520000000     0.029550000000     0.714050000000     0.0380383  
H82      H      0.096260000000     0.028040000000     0.710930000000     0.0398629  
H83      H      0.092910000000     0.465750000000     0.790100000000     0.0457229  
H84      H      0.123260000000     0.420180000000     0.817400000000     0.159211   
H85      H      0.343420000000     0.482360000000     0.713470000000     0.0359711  
H86      H      0.400610000000     0.482840000000     0.710560000000     0.03908    
H87      H      0.404940000000     0.042270000000     0.791880000000     0.045423   
H88      H      0.375310000000     0.086640000000     0.821770000000     0.15759    
H89      H      0.024260000000     0.348950000000     0.716500000000     0.0380508  
H90      H      0.022060000000     0.406100000000     0.712170000000     0.040533   
H91      H      0.461230000000     0.410450000000     0.792480000000     0.0545977  
H92      H      0.427400000000     0.361050000000     0.849790000000     0.171544   
H93      H      0.477000000000     0.159980000000     0.713630000000     0.0354235  
H94      H      0.477030000000     0.102760000000     0.710340000000     0.0374496  
H95      H      0.538470000000     0.097560000000     0.790050000000     0.0447225  
H96      H      0.584740000000     0.126440000000     0.817700000000     0.156492   
H97      H      0.346910000000     0.725810000000     0.046510000000     0.0532562  
H98      H      0.404200000000     0.721150000000     0.043950000000     0.0368492  
H99      H      0.408280000000     0.801560000000     0.983360000000     0.0578049  
H100     H      0.359820000000     0.863920000000     0.959420000000     0.167553   
H101     H      0.156790000000     0.709820000000     0.531210000000     0.0415525  
H102     H      0.099210000000     0.707680000000     0.531270000000     0.0430041  
H103     H      0.095770000000     0.782250000000     0.463840000000     0.0444559  
H104     H      0.127120000000     0.832070000000     0.446470000000     0.163408   
H105     H      0.277570000000     0.850780000000     0.473180000000     0.0597322  
H106     H      0.282110000000     0.906720000000     0.477920000000     0.0567935  
H107     H      0.204530000000     0.908770000000     0.042210000000     0.0432352  
H108     H      0.176400000000     0.878120000000     0.087110000000     0.157046   
H109     H      0.213780000000     0.660610000000     0.974130000000     0.0358724  
H110     H      0.209530000000     0.603060000000     0.975230000000     0.0419196  
H111     H      0.300530000000     0.597030000000     0.018830000000     0.0587282  
H112     H      0.364980000000     0.645990000000     0.038180000000     0.16149    
H113     H      0.220890000000     0.542590000000     0.409690000000     0.0364885  
H114     H      0.223070000000     0.546240000000     0.352360000000     0.0462282  
H115     H      0.272000000000     0.957880000000     0.348370000000     0.0604404  
H116     H      0.291090000000     0.893950000000     0.397020000000     0.168248   
H117     H      0.277970000000     0.968360000000     0.099190000000     0.0374926  
H118     H      0.276380000000     0.965750000000     0.156460000000     0.037677   
H119     H      0.222380000000     0.551020000000     0.159390000000     0.051895   
H120     H      0.196500000000     0.611690000000     0.109280000000     0.166031   
H121     H      0.037460000000     0.780150000000     0.411310000000     0.0421492  
H122     H      0.039630000000     0.780360000000     0.354250000000     0.048878   
H123     H      0.458040000000     0.720930000000     0.350310000000     0.0491289  
H124     H      0.425630000000     0.678380000000     0.379530000000     0.160464   
H125     H      0.464490000000     0.728070000000     0.100990000000     0.0340657  
H126     H      0.461250000000     0.729720000000     0.158130000000     0.0369324  
H127     H      0.545960000000     0.784630000000     0.161890000000     0.0517216  
H128     H      0.105500000000     0.813790000000     0.111770000000     0.174562   
H129     H      0.153520000000     0.529550000000     0.214050000000     0.0379597  
H130     H      0.096260000000     0.528040000000     0.210930000000     0.0395775  
H131     H      0.092910000000     0.965750000000     0.290100000000     0.0459455  
H132     H      0.123260000000     0.920180000000     0.317400000000     0.159246   
H133     H      0.343420000000     0.982360000000     0.213470000000     0.0362552  
H134     H      0.400610000000     0.982840000000     0.210560000000     0.0397764  
H135     H      0.404940000000     0.542270000000     0.291880000000     0.0455754  
H136     H      0.375310000000     0.586640000000     0.321770000000     0.157515   
H137     H      0.024260000000     0.848950000000     0.216500000000     0.0381986  
H138     H      0.022060000000     0.906100000000     0.212170000000     0.0411948  
H139     H      0.461230000000     0.910450000000     0.292480000000     0.055291   
H140     H      0.427400000000     0.861050000000     0.349790000000     0.1716     
H141     H      0.477000000000     0.659980000000     0.213630000000     0.0354862  
H142     H      0.477030000000     0.602760000000     0.210340000000     0.0376586  
H143     H      0.538470000000     0.597560000000     0.290050000000     0.0451241  
H144     H      0.584740000000     0.626440000000     0.317700000000     0.156767   
H145     H      0.346910000000     0.725810000000     0.546510000000     0.0533717  
H146     H      0.404200000000     0.721150000000     0.543940000000     0.0371438  
H147     H      0.408280000000     0.801560000000     0.483360000000     0.0575799  
H148     H      0.359820000000     0.863920000000     0.459420000000     0.166573   
H149     H      0.156790000000     0.709820000000     0.031210000000     0.0413762  
H150     H      0.099210000000     0.707680000000     0.031270000000     0.043607   
H151     H      0.095770000000     0.782250000000     0.963840000000     0.0456596  
H152     H      0.127120000000     0.832070000000     0.946470000000     0.164484   
H153     H      0.277570000000     0.850780000000     0.973180000000     0.05975    
H154     H      0.282110000000     0.906720000000     0.977920000000     0.0570458  
H155     H      0.204530000000     0.908770000000     0.542200000000     0.0434379  
H156     H      0.176400000000     0.878120000000     0.587110000000     0.157016   
H157     H      0.213780000000     0.660610000000     0.474130000000     0.0353097  
H158     H      0.209530000000     0.603060000000     0.475230000000     0.0412657  
H159     H      0.300530000000     0.597030000000     0.518830000000     0.0583603  
H160     H      0.364980000000     0.645990000000     0.538180000000     0.162367   
H161     H      0.220890000000     0.542590000000     0.909690000000     0.0369011  
H162     H      0.223070000000     0.546240000000     0.852360000000     0.0463514  
H163     H      0.272000000000     0.957880000000     0.848370000000     0.0604802  
H164     H      0.291090000000     0.893950000000     0.897020000000     0.168347   
H165     H      0.277970000000     0.968360000000     0.599190000000     0.0376631  
H166     H      0.276380000000     0.965750000000     0.656460000000     0.0377306  
H167     H      0.222380000000     0.551020000000     0.659390000000     0.0519032  
H168     H      0.196500000000     0.611690000000     0.609280000000     0.166367   
H169     H      0.037460000000     0.780150000000     0.911310000000     0.0427376  
H170     H      0.039630000000     0.780360000000     0.854250000000     0.0489906  
H171     H      0.458040000000     0.720930000000     0.850310000000     0.0491506  
H172     H      0.425630000000     0.678380000000     0.879530000000     0.160697   
H173     H      0.464490000000     0.728070000000     0.601000000000     0.0341577  
H174     H      0.461250000000     0.729720000000     0.658130000000     0.0369721  
H175     H      0.545960000000     0.784630000000     0.661890000000     0.0517175  
H176     H      0.105500000000     0.813790000000     0.611770000000     0.174738   
H177     H      0.153520000000     0.529550000000     0.714050000000     0.0379472  
H178     H      0.096260000000     0.528040000000     0.710930000000     0.0396923  
H179     H      0.092910000000     0.965750000000     0.790100000000     0.0460532  
H180     H      0.123260000000     0.920180000000     0.817400000000     0.159303   
H181     H      0.343420000000     0.982360000000     0.713470000000     0.0363011  
H182     H      0.400610000000     0.982840000000     0.710560000000     0.0398738  
H183     H      0.404940000000     0.542270000000     0.791880000000     0.0456778  
H184     H      0.375310000000     0.586640000000     0.821770000000     0.157595   
H185     H      0.024260000000     0.848950000000     0.716500000000     0.038224   
H186     H      0.022060000000     0.906100000000     0.712170000000     0.041276   
H187     H      0.461230000000     0.910450000000     0.792480000000     0.0554037  
H188     H      0.427400000000     0.861050000000     0.849790000000     0.1718     
H189     H      0.477000000000     0.659980000000     0.713630000000     0.0355181  
H190     H      0.477030000000     0.602760000000     0.710340000000     0.0377394  
H191     H      0.538470000000     0.597560000000     0.790050000000     0.0452304  
H192     H      0.584740000000     0.626440000000     0.817700000000     0.156852   
H193     H      0.846910000000     0.225810000000     0.046510000000     0.0531856  
H194     H      0.904200000000     0.221150000000     0.043950000000     0.0364873  
H195     H      0.908280000000     0.301560000000     0.983360000000     0.0572171  
H196     H      0.859820000000     0.363920000000     0.959420000000     0.166982   
H197     H      0.656790000000     0.209830000000     0.531210000000     0.0414146  
H198     H      0.599200000000     0.207680000000     0.531270000000     0.0424793  
H199     H      0.595770000000     0.282250000000     0.463840000000     0.044164   
H200     H      0.627120000000     0.332070000000     0.446470000000     0.16289    
H201     H      0.777570000000     0.350780000000     0.473180000000     0.0597199  
H202     H      0.782110000000     0.406720000000     0.477920000000     0.056502   
H203     H      0.704520000000     0.408760000000     0.042210000000     0.0423486  
H204     H      0.676400000000     0.378120000000     0.087110000000     0.15647    
H205     H      0.713780000000     0.160610000000     0.974130000000     0.035705   
H206     H      0.709530000000     0.103060000000     0.975230000000     0.041495   
H207     H      0.800530000000     0.097030000000     0.018830000000     0.0583429  
H208     H      0.864980000000     0.145990000000     0.038180000000     0.161109   
H209     H      0.720890000000     0.042590000000     0.409690000000     0.0371375  
H210     H      0.723070000000     0.046240000000     0.352360000000     0.0453126  
H211     H      0.772000000000     0.457880000000     0.348370000000     0.0612274  
H212     H      0.791090000000     0.393950000000     0.397020000000     0.168128   
H213     H      0.777970000000     0.468360000000     0.099190000000     0.0369567  
H214     H      0.776390000000     0.465750000000     0.156460000000     0.0377271  
H215     H      0.722380000000     0.051020000000     0.159390000000     0.0519078  
H216     H      0.696500000000     0.111690000000     0.109280000000     0.165816   
H217     H      0.537460000000     0.280150000000     0.411310000000     0.0421409  
H218     H      0.539630000000     0.280360000000     0.354250000000     0.0488133  
H219     H      0.958040000000     0.220930000000     0.350310000000     0.0489476  
H220     H      0.925630000000     0.178380000000     0.379530000000     0.159876   
H221     H      0.964490000000     0.228070000000     0.100990000000     0.0339153  
H222     H      0.961250000000     0.229720000000     0.158130000000     0.0370019  
H223     H      0.045960000000     0.284630000000     0.161890000000     0.0516306  
H224     H      0.605500000000     0.313790000000     0.111770000000     0.174297   
H225     H      0.653520000000     0.029550000000     0.214050000000     0.0379343  
H226     H      0.596260000000     0.028040000000     0.210930000000     0.0392428  
H227     H      0.592900000000     0.465750000000     0.290100000000     0.0450685  
H228     H      0.623260000000     0.420180000000     0.317400000000     0.158851   
H229     H      0.843420000000     0.482360000000     0.213470000000     0.0358385  
H230     H      0.900610000000     0.482840000000     0.210560000000     0.0387489  
H231     H      0.904940000000     0.042270000000     0.291880000000     0.044986   
H232     H      0.875310000000     0.086640000000     0.321770000000     0.15729    
H233     H      0.524260000000     0.348950000000     0.216500000000     0.0379828  
H234     H      0.522060000000     0.406100000000     0.212170000000     0.0400079  
H235     H      0.961230000000     0.410450000000     0.292480000000     0.0543155  
H236     H      0.927400000000     0.361050000000     0.349790000000     0.171055   
H237     H      0.977000000000     0.159980000000     0.213630000000     0.0353191  
H238     H      0.977030000000     0.102760000000     0.210340000000     0.0374617  
H239     H      0.038470000000     0.097560000000     0.290050000000     0.0448583  
H240     H      0.084730000000     0.126440000000     0.317700000000     0.156584   
H241     H      0.846910000000     0.225810000000     0.546510000000     0.0533008  
H242     H      0.904200000000     0.221150000000     0.543940000000     0.0367803  
H243     H      0.908280000000     0.301560000000     0.483360000000     0.0569896  
H244     H      0.859820000000     0.363920000000     0.459420000000     0.165996   
H245     H      0.656790000000     0.209830000000     0.031210000000     0.0412397  
H246     H      0.599200000000     0.207680000000     0.031270000000     0.0430878  
H247     H      0.595770000000     0.282250000000     0.963840000000     0.0453757  
H248     H      0.627120000000     0.332070000000     0.946470000000     0.163976   
H249     H      0.777570000000     0.350780000000     0.973180000000     0.0597373  
H250     H      0.782110000000     0.406720000000     0.977920000000     0.0567557  
H251     H      0.704520000000     0.408760000000     0.542200000000     0.0425522  
H252     H      0.676400000000     0.378120000000     0.587110000000     0.15644    
H253     H      0.713780000000     0.160610000000     0.474130000000     0.0351392  
H254     H      0.709530000000     0.103060000000     0.475230000000     0.0408371  
H255     H      0.800530000000     0.097030000000     0.518830000000     0.0579725  
H256     H      0.864980000000     0.145990000000     0.538180000000     0.161984   
H257     H      0.720890000000     0.042590000000     0.909690000000     0.0375477  
H258     H      0.723070000000     0.046240000000     0.852360000000     0.0454395  
H259     H      0.772000000000     0.457880000000     0.848370000000     0.061264   
H260     H      0.791090000000     0.393950000000     0.897020000000     0.168227   
H261     H      0.777970000000     0.468360000000     0.599190000000     0.0371271  
H262     H      0.776390000000     0.465750000000     0.656460000000     0.037781   
H263     H      0.722380000000     0.051020000000     0.659390000000     0.0519153  
H264     H      0.696500000000     0.111690000000     0.609280000000     0.166152   
H265     H      0.537460000000     0.280150000000     0.911310000000     0.0427317  
H266     H      0.539630000000     0.280360000000     0.854250000000     0.048927   
H267     H      0.958040000000     0.220930000000     0.850310000000     0.0489692  
H268     H      0.925630000000     0.178380000000     0.879530000000     0.160109   
H269     H      0.964490000000     0.228070000000     0.601000000000     0.0340077  
H270     H      0.961250000000     0.229720000000     0.658130000000     0.0370411  
H271     H      0.045960000000     0.284630000000     0.661890000000     0.0516264  
H272     H      0.605500000000     0.313790000000     0.611770000000     0.174474   
H273     H      0.653520000000     0.029550000000     0.714050000000     0.0379208  
H274     H      0.596260000000     0.028040000000     0.710930000000     0.0393558  
H275     H      0.592900000000     0.465750000000     0.790100000000     0.0451792  
H276     H      0.623260000000     0.420180000000     0.817400000000     0.158909   
H277     H      0.843420000000     0.482360000000     0.713470000000     0.0358841  
H278     H      0.900610000000     0.482840000000     0.710560000000     0.0388465  
H279     H      0.904940000000     0.042270000000     0.791880000000     0.0450891  
H280     H      0.875310000000     0.086640000000     0.821770000000     0.157371   
H281     H      0.524260000000     0.348950000000     0.716500000000     0.0380083  
H282     H      0.522060000000     0.406100000000     0.712170000000     0.0400901  
H283     H      0.961230000000     0.410450000000     0.792480000000     0.0544309  
H284     H      0.927400000000     0.361050000000     0.849790000000     0.171256   
H285     H      0.977000000000     0.159980000000     0.713630000000     0.03535    
H286     H      0.977030000000     0.102760000000     0.710340000000     0.0375411  
H287     H      0.038470000000     0.097560000000     0.790050000000     0.0449649  
H288     H      0.084730000000     0.126440000000     0.817700000000     0.156669   
H289     H      0.846910000000     0.725810000000     0.046510000000     0.0532093  
H290     H      0.904200000000     0.721150000000     0.043950000000     0.0365737  
H291     H      0.908280000000     0.801560000000     0.983360000000     0.0573702  
H292     H      0.859820000000     0.863920000000     0.959420000000     0.167398   
H293     H      0.656790000000     0.709820000000     0.531210000000     0.0414397  
H294     H      0.599200000000     0.707680000000     0.531270000000     0.0426018  
H295     H      0.595770000000     0.782250000000     0.463840000000     0.0442344  
H296     H      0.627120000000     0.832070000000     0.446470000000     0.163214   
H297     H      0.777570000000     0.850780000000     0.473180000000     0.0597315  
H298     H      0.782110000000     0.906720000000     0.477920000000     0.0567508  
H299     H      0.704520000000     0.908770000000     0.042210000000     0.0431514  
H300     H      0.676400000000     0.878120000000     0.087110000000     0.156972   
H301     H      0.713780000000     0.660610000000     0.974130000000     0.0357857  
H302     H      0.709530000000     0.603060000000     0.975230000000     0.0417742  
H303     H      0.800530000000     0.597030000000     0.018830000000     0.0586535  
H304     H      0.864980000000     0.645990000000     0.038180000000     0.161314   
H305     H      0.720890000000     0.542590000000     0.409690000000     0.0363905  
H306     H      0.723070000000     0.546240000000     0.352360000000     0.0461725  
H307     H      0.772000000000     0.957880000000     0.348370000000     0.0604229  
H308     H      0.791090000000     0.893950000000     0.397020000000     0.168221   
H309     H      0.777970000000     0.968360000000     0.099190000000     0.0374104  
H310     H      0.776390000000     0.965750000000     0.156460000000     0.0376132  
H311     H      0.722380000000     0.551020000000     0.159390000000     0.0518595  
H312     H      0.696500000000     0.611690000000     0.109280000000     0.165892   
H313     H      0.537460000000     0.780150000000     0.411310000000     0.0422489  
H314     H      0.539630000000     0.780360000000     0.354250000000     0.0488862  
H315     H      0.958040000000     0.720930000000     0.350310000000     0.0489632  
H316     H      0.925630000000     0.678380000000     0.379530000000     0.160023   
H317     H      0.964490000000     0.728070000000     0.100990000000     0.0340163  
H318     H      0.961250000000     0.729720000000     0.158130000000     0.0370557  
H319     H      0.045960000000     0.784630000000     0.161890000000     0.0517149  
H320     H      0.605500000000     0.813790000000     0.111770000000     0.174481   
H321     H      0.653520000000     0.529550000000     0.214050000000     0.0378419  
H322     H      0.596260000000     0.528040000000     0.210930000000     0.0390693  
H323     H      0.592900000000     0.965750000000     0.290100000000     0.0454057  
H324     H      0.623260000000     0.920180000000     0.317400000000     0.158945   
H325     H      0.843420000000     0.982360000000     0.213470000000     0.0361694  
H326     H      0.900610000000     0.982840000000     0.210560000000     0.0395452  
H327     H      0.904940000000     0.542270000000     0.291880000000     0.0452415  
H328     H      0.875310000000     0.586640000000     0.321770000000     0.157295   
H329     H      0.524260000000     0.848950000000     0.216500000000     0.0381576  
H330     H      0.522060000000     0.906100000000     0.212170000000     0.0407581  
H331     H      0.961230000000     0.910450000000     0.292480000000     0.0551252  
H332     H      0.927400000000     0.861050000000     0.349790000000     0.171314   
H333     H      0.977000000000     0.659980000000     0.213630000000     0.0354133  
H334     H      0.977030000000     0.602760000000     0.210340000000     0.0377507  
H335     H      0.038470000000     0.597560000000     0.290050000000     0.0453647  
H336     H      0.084730000000     0.626440000000     0.317700000000     0.156943   
H337     H      0.846910000000     0.725810000000     0.546510000000     0.0533245  
H338     H      0.904200000000     0.721150000000     0.543940000000     0.0368669  
H339     H      0.908280000000     0.801560000000     0.483360000000     0.0571452  
H340     H      0.859820000000     0.863920000000     0.459420000000     0.166418   
H341     H      0.656790000000     0.709820000000     0.031210000000     0.0412637  
H342     H      0.599200000000     0.707680000000     0.031270000000     0.0432069  
H343     H      0.595770000000     0.782250000000     0.963840000000     0.0454422  
H344     H      0.627120000000     0.832070000000     0.946470000000     0.164294   
H345     H      0.777570000000     0.850780000000     0.973180000000     0.0597486  
H346     H      0.782110000000     0.906720000000     0.977920000000     0.0570024  
H347     H      0.704520000000     0.908770000000     0.542200000000     0.0433544  
H348     H      0.676400000000     0.878120000000     0.587110000000     0.156941   
H349     H      0.713780000000     0.660610000000     0.474130000000     0.0352214  
H350     H      0.709530000000     0.603060000000     0.475230000000     0.0411182  
H351     H      0.800530000000     0.597030000000     0.518830000000     0.0582846  
H352     H      0.864980000000     0.645990000000     0.538180000000     0.162189   
H353     H      0.720890000000     0.542590000000     0.909690000000     0.0368039  
H354     H      0.723070000000     0.546240000000     0.852360000000     0.046296   
H355     H      0.772000000000     0.957880000000     0.848370000000     0.0604627  
H356     H      0.791090000000     0.893950000000     0.897020000000     0.16832    
H357     H      0.777970000000     0.968360000000     0.599190000000     0.0375803  
H358     H      0.776390000000     0.965750000000     0.656460000000     0.0376666  
H359     H      0.722380000000     0.551020000000     0.659390000000     0.0518676  
H360     H      0.696500000000     0.611690000000     0.609280000000     0.166228   
H361     H      0.537460000000     0.780150000000     0.911310000000     0.0428374  
H362     H      0.539630000000     0.780360000000     0.854250000000     0.0489993  
H363     H      0.958040000000     0.720930000000     0.850310000000     0.0489847  
H364     H      0.925630000000     0.678380000000     0.879530000000     0.160256   
H365     H      0.964490000000     0.728070000000     0.601000000000     0.0341088  
H366     H      0.961250000000     0.729720000000     0.658130000000     0.0370949  
H367     H      0.045960000000     0.784630000000     0.661890000000     0.0517106  
H368     H      0.605500000000     0.813790000000     0.611770000000     0.174658   
H369     H      0.653520000000     0.529550000000     0.714050000000     0.0378293  
H370     H      0.596260000000     0.528040000000     0.710930000000     0.0391841  
H371     H      0.592900000000     0.965750000000     0.790100000000     0.0455142  
H372     H      0.623260000000     0.920180000000     0.817400000000     0.159003   
H373     H      0.843420000000     0.982360000000     0.713470000000     0.036215   
H374     H      0.900610000000     0.982840000000     0.710560000000     0.0396418  
H375     H      0.904940000000     0.542270000000     0.791880000000     0.0453438  
H376     H      0.875310000000     0.586640000000     0.821770000000     0.157376   
H377     H      0.524260000000     0.848950000000     0.716500000000     0.0381828  
H378     H      0.522060000000     0.906100000000     0.712170000000     0.0408391  
H379     H      0.961230000000     0.910450000000     0.792480000000     0.0552377  
H380     H      0.927400000000     0.861050000000     0.849790000000     0.171514   
H381     H      0.977000000000     0.659980000000     0.713630000000     0.0354443  
H382     H      0.977030000000     0.602760000000     0.710340000000     0.0378303  
H383     H      0.038470000000     0.597560000000     0.790050000000     0.0454699  
H384     H      0.084730000000     0.626440000000     0.817700000000     0.157027   
N1       N      0.410000000000     0.260430000000     0.012440000000    -0.191162   
N2       N      0.344060000000     0.263400000000     0.012680000000    -0.178692   
N3       N      0.093850000000     0.245550000000     0.998160000000    -0.181216   
N4       N      0.159910000000     0.246500000000     0.996150000000    -0.175282   
N5       N      0.243030000000     0.411740000000     0.509850000000    -0.187172   
N6       N      0.242550000000     0.345650000000     0.509690000000    -0.175645   
N7       N      0.254680000000     0.096010000000     0.497440000000    -0.186202   
N8       N      0.258760000000     0.161800000000     0.497530000000    -0.18125    
N9       N      0.248000000000     0.002350000000     0.346340000000    -0.18705    
N10      N      0.246550000000     0.998890000000     0.412010000000    -0.176522   
N11      N      0.249130000000     0.008250000000     0.161790000000    -0.19307    
N12      N      0.249330000000     0.010210000000     0.096020000000    -0.185995   
N13      N      0.998760000000     0.250770000000     0.348340000000    -0.18623    
N14      N      0.497430000000     0.248920000000     0.414150000000    -0.179833   
N15      N      0.003590000000     0.257150000000     0.163870000000    -0.188387   
N16      N      0.506180000000     0.257010000000     0.098160000000    -0.182899   
N17      N      0.090770000000     0.497020000000     0.250660000000    -0.190353   
N18      N      0.156620000000     0.497030000000     0.252890000000    -0.181761   
N19      N      0.406660000000     0.512310000000     0.251390000000    -0.190056   
N20      N      0.340750000000     0.513400000000     0.253540000000    -0.181645   
N21      N      0.491720000000     0.412170000000     0.252350000000    -0.189626   
N22      N      0.492630000000     0.346330000000     0.256100000000    -0.182465   
N23      N      0.007370000000     0.096310000000     0.250430000000    -0.188136   
N24      N      0.509070000000     0.162220000000     0.252940000000    -0.181432   
N25      N      0.410000000000     0.260430000000     0.512440000000    -0.187823   
N26      N      0.344060000000     0.263400000000     0.512680000000    -0.176787   
N27      N      0.093850000000     0.245550000000     0.498160000000    -0.18803    
N28      N      0.159910000000     0.246500000000     0.496150000000    -0.177417   
N29      N      0.243030000000     0.411740000000     0.009850000000    -0.190371   
N30      N      0.242550000000     0.345650000000     0.009700000000    -0.177753   
N31      N      0.254680000000     0.096010000000     0.997440000000    -0.183546   
N32      N      0.258760000000     0.161800000000     0.997520000000    -0.17928    
N33      N      0.248000000000     0.002350000000     0.846340000000    -0.187022   
N34      N      0.246550000000     0.998890000000     0.912010000000    -0.17613    
N35      N      0.249130000000     0.008250000000     0.661780000000    -0.192982   
N36      N      0.249330000000     0.010210000000     0.596020000000    -0.186106   
N37      N      0.998760000000     0.250770000000     0.848340000000    -0.186219   
N38      N      0.497430000000     0.248920000000     0.914150000000    -0.179434   
N39      N      0.003590000000     0.257150000000     0.663870000000    -0.188384   
N40      N      0.506180000000     0.257010000000     0.598160000000    -0.18298    
N41      N      0.090770000000     0.497020000000     0.750660000000    -0.190293   
N42      N      0.156620000000     0.497030000000     0.752890000000    -0.181802   
N43      N      0.406660000000     0.512310000000     0.751390000000    -0.190034   
N44      N      0.340750000000     0.513400000000     0.753540000000    -0.181648   
N45      N      0.491720000000     0.412170000000     0.752350000000    -0.189593   
N46      N      0.492630000000     0.346330000000     0.756100000000    -0.182492   
N47      N      0.007370000000     0.096310000000     0.750430000000    -0.188112   
N48      N      0.509070000000     0.162220000000     0.752940000000    -0.181441   
N49      N      0.410000000000     0.760440000000     0.012440000000    -0.191139   
N50      N      0.344060000000     0.763400000000     0.012680000000    -0.178688   
N51      N      0.093850000000     0.745560000000     0.998160000000    -0.181214   
N52      N      0.159910000000     0.746500000000     0.996150000000    -0.175288   
N53      N      0.243030000000     0.911740000000     0.509850000000    -0.18661    
N54      N      0.242550000000     0.845650000000     0.509690000000    -0.175651   
N55      N      0.254680000000     0.596010000000     0.497440000000    -0.186314   
N56      N      0.258760000000     0.661800000000     0.497530000000    -0.181241   
N57      N      0.248000000000     0.502350000000     0.346340000000    -0.183371   
N58      N      0.246550000000     0.498880000000     0.412010000000    -0.180428   
N59      N      0.249130000000     0.508250000000     0.161790000000    -0.19044    
N60      N      0.249330000000     0.510210000000     0.096020000000    -0.182194   
N61      N      0.998760000000     0.750770000000     0.348340000000    -0.186219   
N62      N      0.497430000000     0.748920000000     0.414150000000    -0.179813   
N63      N      0.003590000000     0.757150000000     0.163870000000    -0.188377   
N64      N      0.506180000000     0.757010000000     0.098160000000    -0.182858   
N65      N      0.090770000000     0.997020000000     0.250660000000    -0.187281   
N66      N      0.156620000000     0.997030000000     0.252890000000    -0.179073   
N67      N      0.406660000000     0.012310000000     0.251390000000    -0.193916   
N68      N      0.340750000000     0.013400000000     0.253540000000    -0.184233   
N69      N      0.491720000000     0.912170000000     0.252350000000    -0.188937   
N70      N      0.492630000000     0.846330000000     0.256100000000    -0.182482   
N71      N      0.007370000000     0.596310000000     0.250430000000    -0.188218   
N72      N      0.509070000000     0.662220000000     0.252940000000    -0.181426   
N73      N      0.410000000000     0.760440000000     0.512440000000    -0.187808   
N74      N      0.344060000000     0.763400000000     0.512680000000    -0.176788   
N75      N      0.093850000000     0.745560000000     0.498160000000    -0.188009   
N76      N      0.159910000000     0.746500000000     0.496150000000    -0.177417   
N77      N      0.243030000000     0.911740000000     0.009850000000    -0.189793   
N78      N      0.242550000000     0.845650000000     0.009700000000    -0.17775    
N79      N      0.254680000000     0.596010000000     0.997440000000    -0.183661   
N80      N      0.258760000000     0.661800000000     0.997520000000    -0.179273   
N81      N      0.248000000000     0.502350000000     0.846340000000    -0.183357   
N82      N      0.246550000000     0.498880000000     0.912010000000    -0.180019   
N83      N      0.249130000000     0.508250000000     0.661780000000    -0.19035    
N84      N      0.249330000000     0.510210000000     0.596020000000    -0.182306   
N85      N      0.998760000000     0.750770000000     0.848340000000    -0.186208   
N86      N      0.497430000000     0.748920000000     0.914150000000    -0.179414   
N87      N      0.003590000000     0.757150000000     0.663870000000    -0.188374   
N88      N      0.506180000000     0.757010000000     0.598160000000    -0.182939   
N89      N      0.090770000000     0.997020000000     0.750660000000    -0.18723    
N90      N      0.156620000000     0.997030000000     0.752890000000    -0.179118   
N91      N      0.406660000000     0.012310000000     0.751390000000    -0.193887   
N92      N      0.340750000000     0.013400000000     0.753540000000    -0.184231   
N93      N      0.491720000000     0.912170000000     0.752350000000    -0.188905   
N94      N      0.492630000000     0.846330000000     0.756100000000    -0.182509   
N95      N      0.007370000000     0.596310000000     0.750430000000    -0.188194   
N96      N      0.509070000000     0.662220000000     0.752940000000    -0.181435   
N97      N      0.910000000000     0.260430000000     0.012440000000    -0.191288   
N98      N      0.844060000000     0.263400000000     0.012680000000    -0.178694   
N99      N      0.593850000000     0.245550000000     0.998160000000    -0.181402   
N100     N      0.659910000000     0.246500000000     0.996150000000    -0.175274   
N101     N      0.743030000000     0.411740000000     0.509850000000    -0.187199   
N102     N      0.742550000000     0.345650000000     0.509690000000    -0.175645   
N103     N      0.754680000000     0.096010000000     0.497440000000    -0.186222   
N104     N      0.758760000000     0.161800000000     0.497530000000    -0.181251   
N105     N      0.748000000000     0.002350000000     0.346340000000    -0.187059   
N106     N      0.746550000000     0.998890000000     0.412010000000    -0.176594   
N107     N      0.749130000000     0.008250000000     0.161790000000    -0.19307    
N108     N      0.749330000000     0.010210000000     0.096020000000    -0.186024   
N109     N      0.498760000000     0.250770000000     0.348340000000    -0.18431    
N110     N      0.997430000000     0.248920000000     0.414150000000    -0.181653   
N111     N      0.503590000000     0.257150000000     0.163870000000    -0.19024    
N112     N      0.006180000000     0.257010000000     0.098160000000    -0.179915   
N113     N      0.590770000000     0.497020000000     0.250660000000    -0.190776   
N114     N      0.656620000000     0.497030000000     0.252890000000    -0.181756   
N115     N      0.906660000000     0.512310000000     0.251390000000    -0.189997   
N116     N      0.840750000000     0.513400000000     0.253540000000    -0.181653   
N117     N      0.991730000000     0.412170000000     0.252350000000    -0.192309   
N118     N      0.992630000000     0.346330000000     0.256100000000    -0.184299   
N119     N      0.507360000000     0.096310000000     0.250430000000    -0.190295   
N120     N      0.009070000000     0.162220000000     0.252940000000    -0.179611   
N121     N      0.910000000000     0.260430000000     0.512440000000    -0.187957   
N122     N      0.844060000000     0.263400000000     0.512680000000    -0.176792   
N123     N      0.593850000000     0.245550000000     0.498160000000    -0.188233   
N124     N      0.659910000000     0.246500000000     0.496150000000    -0.177413   
N125     N      0.743030000000     0.411740000000     0.009850000000    -0.190396   
N126     N      0.742550000000     0.345650000000     0.009700000000    -0.177752   
N127     N      0.754680000000     0.096010000000     0.997440000000    -0.183566   
N128     N      0.758760000000     0.161800000000     0.997520000000    -0.179281   
N129     N      0.748000000000     0.002350000000     0.846340000000    -0.18703    
N130     N      0.746550000000     0.998890000000     0.912010000000    -0.176201   
N131     N      0.749130000000     0.008250000000     0.661780000000    -0.192981   
N132     N      0.749330000000     0.010210000000     0.596020000000    -0.186135   
N133     N      0.498760000000     0.250770000000     0.848340000000    -0.184301   
N134     N      0.997430000000     0.248920000000     0.914150000000    -0.181252   
N135     N      0.503590000000     0.257150000000     0.663870000000    -0.190238   
N136     N      0.006180000000     0.257010000000     0.598160000000    -0.17999    
N137     N      0.590770000000     0.497020000000     0.750660000000    -0.190716   
N138     N      0.656620000000     0.497030000000     0.752890000000    -0.181797   
N139     N      0.906660000000     0.512310000000     0.751390000000    -0.189975   
N140     N      0.840750000000     0.513400000000     0.753540000000    -0.181655   
N141     N      0.991730000000     0.412170000000     0.752350000000    -0.192276   
N142     N      0.992630000000     0.346330000000     0.756100000000    -0.184327   
N143     N      0.507360000000     0.096310000000     0.750430000000    -0.190271   
N144     N      0.009070000000     0.162220000000     0.752940000000    -0.17962    
N145     N      0.910000000000     0.760440000000     0.012440000000    -0.191265   
N146     N      0.844060000000     0.763400000000     0.012680000000    -0.178689   
N147     N      0.593850000000     0.745560000000     0.998160000000    -0.181399   
N148     N      0.659910000000     0.746500000000     0.996150000000    -0.17528    
N149     N      0.743030000000     0.911740000000     0.509850000000    -0.186635   
N150     N      0.742550000000     0.845650000000     0.509690000000    -0.175651   
N151     N      0.754680000000     0.596010000000     0.497440000000    -0.186335   
N152     N      0.758760000000     0.661800000000     0.497530000000    -0.181242   
N153     N      0.748000000000     0.502350000000     0.346340000000    -0.183372   
N154     N      0.746550000000     0.498880000000     0.412010000000    -0.18051    
N155     N      0.749130000000     0.508250000000     0.161790000000    -0.190433   
N156     N      0.749330000000     0.510210000000     0.096020000000    -0.182214   
N157     N      0.498760000000     0.750770000000     0.348340000000    -0.184305   
N158     N      0.997430000000     0.748920000000     0.414150000000    -0.181627   
N159     N      0.503590000000     0.757150000000     0.163870000000    -0.190223   
N160     N      0.006180000000     0.757010000000     0.098160000000    -0.179885   
N161     N      0.590770000000     0.997020000000     0.250660000000    -0.18769    
N162     N      0.656620000000     0.997030000000     0.252890000000    -0.179056   
N163     N      0.906660000000     0.012310000000     0.251390000000    -0.193861   
N164     N      0.840750000000     0.013400000000     0.253540000000    -0.184244   
N165     N      0.991730000000     0.912170000000     0.252350000000    -0.191604   
N166     N      0.992630000000     0.846330000000     0.256100000000    -0.184306   
N167     N      0.507360000000     0.596310000000     0.250430000000    -0.190372   
N168     N      0.009070000000     0.662220000000     0.252940000000    -0.179609   
N169     N      0.910000000000     0.760440000000     0.512440000000    -0.187942   
N170     N      0.844060000000     0.763400000000     0.512680000000    -0.176793   
N171     N      0.593850000000     0.745560000000     0.498160000000    -0.188212   
N172     N      0.659910000000     0.746500000000     0.496150000000    -0.177414   
N173     N      0.743030000000     0.911740000000     0.009850000000    -0.189817   
N174     N      0.742550000000     0.845650000000     0.009700000000    -0.17775    
N175     N      0.754680000000     0.596010000000     0.997440000000    -0.183681   
N176     N      0.758760000000     0.661800000000     0.997520000000    -0.179275   
N177     N      0.748000000000     0.502350000000     0.846340000000    -0.183358   
N178     N      0.746550000000     0.498880000000     0.912010000000    -0.1801     
N179     N      0.749130000000     0.508250000000     0.661780000000    -0.190343   
N180     N      0.749330000000     0.510210000000     0.596020000000    -0.182327   
N181     N      0.498760000000     0.750770000000     0.848340000000    -0.184296   
N182     N      0.997430000000     0.748920000000     0.914150000000    -0.181227   
N183     N      0.503590000000     0.757150000000     0.663870000000    -0.190221   
N184     N      0.006180000000     0.757010000000     0.598160000000    -0.179961   
N185     N      0.590770000000     0.997020000000     0.750660000000    -0.187638   
N186     N      0.656620000000     0.997030000000     0.752890000000    -0.179101   
N187     N      0.906660000000     0.012310000000     0.751390000000    -0.193831   
N188     N      0.840750000000     0.013400000000     0.753540000000    -0.184241   
N189     N      0.991730000000     0.912170000000     0.752350000000    -0.191573   
N190     N      0.992630000000     0.846330000000     0.756100000000    -0.184334   
N191     N      0.507360000000     0.596310000000     0.750430000000    -0.190348   
N192     N      0.009070000000     0.662220000000     0.752940000000    -0.179618   
O1       O      0.507310000000     0.048750000000     0.276700000000    -0.546082   
O2       O      0.990520000000     0.460260000000     0.277620000000    -0.545381   
O3       O      0.043160000000     0.996170000000     0.276890000000    -0.537541   
O4       O      0.454550000000     0.512910000000     0.277260000000    -0.545994   
O5       O      0.453610000000     0.004370000000     0.225120000000    -0.553534   
O6       O      0.043590000000     0.503950000000     0.224620000000    -0.547379   
O7       O      0.498430000000     0.459010000000     0.225390000000    -0.548258   
O8       O      0.998890000000     0.049180000000     0.224530000000    -0.552906   
O9       O      0.031410000000     0.211880000000     0.257610000000    -0.533477   
O10      O      0.023090000000     0.301640000000     0.255860000000    -0.546657   
O11      O      0.025800000000     0.257580000000     0.301710000000    -0.537409   
O12      O      0.028730000000     0.257280000000     0.211960000000    -0.552138   
O13      O      0.475790000000     0.254260000000     0.210450000000    -0.551352   
O14      O      0.473690000000     0.248070000000     0.300140000000    -0.540081   
O15      O      0.470390000000     0.296600000000     0.258550000000    -0.532459   
O16      O      0.478950000000     0.207150000000     0.251950000000    -0.552502   
O17      O      0.201360000000     0.027490000000     0.252660000000    -0.556676   
O18      O      0.291060000000     0.035800000000     0.257080000000    -0.529916   
O19      O      0.247210000000     0.033170000000     0.209990000000    -0.547936   
O20      O      0.243970000000     0.030200000000     0.299750000000    -0.539212   
O21      O      0.252890000000     0.478040000000     0.298000000000    -0.543126   
O22      O      0.250500000000     0.480290000000     0.208310000000    -0.553725   
O23      O      0.295880000000     0.483340000000     0.251570000000    -0.554004   
O24      O      0.206330000000     0.474790000000     0.254840000000    -0.535851   
O25      O      0.274870000000     0.503390000000     0.048660000000    -0.549523   
O26      O      0.273690000000     0.999610000000     0.458790000000    -0.531324   
O27      O      0.277410000000     0.046750000000     0.002010000000    -0.555081   
O28      O      0.271460000000     0.457400000000     0.505260000000    -0.552933   
O29      O      0.218800000000     0.460870000000     0.010350000000    -0.533421   
O30      O      0.224670000000     0.050520000000     0.498530000000    -0.538276   
O31      O      0.220650000000     0.501230000000     0.459550000000    -0.539317   
O32      O      0.222530000000     0.011710000000     0.048910000000    -0.53236    
O33      O      0.048770000000     0.275270000000     0.500510000000    -0.549761   
O34      O      0.459420000000     0.282770000000     0.007410000000    -0.551012   
O35      O      0.008190000000     0.281110000000     0.049480000000    -0.535292   
O36      O      0.501340000000     0.277000000000     0.460030000000    -0.553126   
O37      O      0.996010000000     0.224350000000     0.462820000000    -0.526239   
O38      O      0.502350000000     0.228510000000     0.052490000000    -0.550518   
O39      O      0.454990000000     0.230110000000     0.511600000000    -0.541477   
O40      O      0.044790000000     0.222600000000     0.005210000000    -0.537085   
O41      O      0.256540000000     0.206860000000     0.027360000000    -0.538127   
O42      O      0.242960000000     0.296180000000     0.033470000000    -0.520572   
O43      O      0.205400000000     0.245050000000     0.026020000000    -0.541018   
O44      O      0.294620000000     0.257140000000     0.034880000000    -0.530817   
O45      O      0.299110000000     0.259790000000     0.482290000000    -0.52796    
O46      O      0.209440000000     0.253010000000     0.474030000000    -0.535778   
O47      O      0.250890000000     0.300280000000     0.481450000000    -0.53997    
O48      O      0.257130000000     0.210910000000     0.474600000000    -0.543582   
O49      O      0.324240000000     0.337590000000     0.008030000000    -0.184969   
O50      O      0.371620000000     0.344500000000     0.965400000000    -0.271072   
O51      O      0.319700000000     0.310200000000     0.449600000000    -0.163866   
O52      O      0.178720000000     0.272710000000     0.420450000000    -0.151664   
O53      O      0.131870000000     0.315030000000     0.431040000000    -0.266235   
O54      O      0.185030000000     0.316780000000     0.966670000000    -0.15338    
O55      O      0.213390000000     0.327450000000     0.085450000000    -0.167119   
O56      O      0.167090000000     0.368690000000     0.067740000000    -0.266498   
O57      O      0.175730000000     0.314290000000     0.035300000000    -0.151379   
O58      O      0.310160000000     0.179670000000     0.058670000000    -0.168003   
O59      O      0.346120000000     0.133880000000     0.031120000000    -0.271608   
O60      O      0.331500000000     0.186920000000     0.498080000000    -0.167973   
O61      O      0.244220000000     0.424280000000     0.432360000000    -0.169235   
O62      O      0.286150000000     0.413530000000     0.385030000000    -0.267892   
O63      O      0.304750000000     0.447040000000     0.436500000000    -0.167767   
O64      O      0.181320000000     0.054670000000     0.077250000000    -0.169391   
O65      O      0.206020000000     0.094110000000     0.121590000000    -0.275969   
O66      O      0.239070000000     0.081910000000     0.068190000000    -0.17208    
O67      O      0.426420000000     0.232270000000     0.441870000000    -0.154507   
O68      O      0.417400000000     0.198530000000     0.388360000000    -0.261207   
O69      O      0.459180000000     0.177790000000     0.432720000000    -0.163191   
O70      O      0.548150000000     0.325930000000     0.079110000000    -0.163647   
O71      O      0.588320000000     0.303480000000     0.124040000000    -0.275972   
O72      O      0.077970000000     0.269410000000     0.070820000000    -0.169486   
O73      O      0.181390000000     0.478480000000     0.325200000000    -0.16058    
O74      O      0.130580000000     0.439730000000     0.328170000000    -0.263399   
O75      O      0.178990000000     0.426070000000     0.288180000000    -0.163095   
O76      O      0.315590000000     0.529640000000     0.326070000000    -0.159061   
O77      O      0.367500000000     0.066690000000     0.331400000000    -0.26486    
O78      O      0.319990000000     0.083560000000     0.291480000000    -0.166061   
O79      O      0.475830000000     0.321100000000     0.327890000000    -0.171186   
O80      O      0.438730000000     0.373160000000     0.333170000000    -0.273423   
O81      O      0.421730000000     0.325760000000     0.293220000000    -0.161494   
O82      O      0.528030000000     0.186090000000     0.325570000000    -0.162166   
O83      O      0.565300000000     0.134190000000     0.328400000000    -0.266222   
O84      O      0.080500000000     0.182360000000     0.288700000000    -0.16566    
O85      O      0.507310000000     0.048750000000     0.776700000000    -0.546001   
O86      O      0.990520000000     0.460260000000     0.777620000000    -0.545297   
O87      O      0.043160000000     0.996170000000     0.776890000000    -0.537467   
O88      O      0.454550000000     0.512910000000     0.777260000000    -0.545913   
O89      O      0.453610000000     0.004370000000     0.725120000000    -0.553468   
O90      O      0.043590000000     0.503950000000     0.724620000000    -0.547313   
O91      O      0.498430000000     0.459010000000     0.725390000000    -0.548192   
O92      O      0.998890000000     0.049180000000     0.724530000000    -0.552847   
O93      O      0.031410000000     0.211880000000     0.757600000000    -0.533513   
O94      O      0.023090000000     0.301640000000     0.755860000000    -0.546656   
O95      O      0.025800000000     0.257580000000     0.801710000000    -0.537406   
O96      O      0.028730000000     0.257280000000     0.711960000000    -0.552132   
O97      O      0.475790000000     0.254260000000     0.710450000000    -0.55134    
O98      O      0.473690000000     0.248070000000     0.800140000000    -0.540087   
O99      O      0.470390000000     0.296600000000     0.758550000000    -0.532468   
O100     O      0.478950000000     0.207150000000     0.751950000000    -0.552511   
O101     O      0.201360000000     0.027490000000     0.752660000000    -0.556661   
O102     O      0.291060000000     0.035800000000     0.757080000000    -0.529933   
O103     O      0.247210000000     0.033170000000     0.709990000000    -0.547918   
O104     O      0.243970000000     0.030200000000     0.799750000000    -0.539185   
O105     O      0.252890000000     0.478040000000     0.798000000000    -0.54312    
O106     O      0.250500000000     0.480290000000     0.708310000000    -0.553695   
O107     O      0.295880000000     0.483340000000     0.751570000000    -0.553995   
O108     O      0.206330000000     0.474790000000     0.754840000000    -0.535861   
O109     O      0.274870000000     0.503390000000     0.548660000000    -0.550363   
O110     O      0.273690000000     0.999610000000     0.958790000000    -0.526733   
O111     O      0.277410000000     0.046750000000     0.502010000000    -0.549871   
O112     O      0.271460000000     0.457400000000     0.005260000000    -0.554298   
O113     O      0.218800000000     0.460870000000     0.510350000000    -0.534132   
O114     O      0.224670000000     0.050520000000     0.998530000000    -0.533929   
O115     O      0.220650000000     0.501230000000     0.959550000000    -0.533792   
O116     O      0.222530000000     0.011710000000     0.548910000000    -0.533923   
O117     O      0.048770000000     0.275270000000     0.000510000000    -0.549568   
O118     O      0.459420000000     0.282770000000     0.507410000000    -0.550005   
O119     O      0.008190000000     0.281110000000     0.549480000000    -0.536462   
O120     O      0.501340000000     0.277000000000     0.960030000000    -0.548005   
O121     O      0.996010000000     0.224350000000     0.962820000000    -0.521222   
O122     O      0.502350000000     0.228510000000     0.552490000000    -0.551727   
O123     O      0.454990000000     0.230110000000     0.011600000000    -0.541845   
O124     O      0.044790000000     0.222600000000     0.505210000000    -0.537906   
O125     O      0.256540000000     0.206860000000     0.527360000000    -0.533212   
O126     O      0.242960000000     0.296180000000     0.533470000000    -0.522323   
O127     O      0.205400000000     0.245050000000     0.526020000000    -0.536145   
O128     O      0.294620000000     0.257140000000     0.534880000000    -0.532577   
O129     O      0.299110000000     0.259790000000     0.982290000000    -0.523213   
O130     O      0.209440000000     0.253010000000     0.974030000000    -0.537592   
O131     O      0.250890000000     0.300280000000     0.981450000000    -0.535246   
O132     O      0.257130000000     0.210910000000     0.974600000000    -0.545296   
O133     O      0.324240000000     0.337590000000     0.508030000000    -0.179157   
O134     O      0.371620000000     0.344500000000     0.465400000000    -0.271276   
O135     O      0.319700000000     0.310200000000     0.949600000000    -0.164254   
O136     O      0.178720000000     0.272710000000     0.920450000000    -0.151582   
O137     O      0.131870000000     0.315030000000     0.931040000000    -0.266032   
O138     O      0.185030000000     0.316780000000     0.466670000000    -0.155448   
O139     O      0.213390000000     0.327450000000     0.585450000000    -0.167141   
O140     O      0.167090000000     0.368690000000     0.567740000000    -0.265797   
O141     O      0.175730000000     0.314290000000     0.535300000000    -0.14933    
O142     O      0.310160000000     0.179670000000     0.558670000000    -0.168379   
O143     O      0.346120000000     0.133880000000     0.531120000000    -0.271463   
O144     O      0.331500000000     0.186920000000     0.998080000000    -0.161848   
O145     O      0.244220000000     0.424280000000     0.932360000000    -0.168039   
O146     O      0.286150000000     0.413530000000     0.885030000000    -0.267819   
O147     O      0.304750000000     0.447040000000     0.936500000000    -0.166304   
O148     O      0.181320000000     0.054670000000     0.577250000000    -0.168431   
O149     O      0.206020000000     0.094110000000     0.621590000000    -0.275981   
O150     O      0.239070000000     0.081910000000     0.568190000000    -0.170854   
O151     O      0.426420000000     0.232270000000     0.941870000000    -0.152859   
O152     O      0.417400000000     0.198530000000     0.888360000000    -0.260977   
O153     O      0.459180000000     0.177790000000     0.932720000000    -0.161534   
O154     O      0.548150000000     0.325930000000     0.579110000000    -0.162931   
O155     O      0.588320000000     0.303480000000     0.624040000000    -0.275953   
O156     O      0.077970000000     0.269410000000     0.570820000000    -0.169103   
O157     O      0.181390000000     0.478480000000     0.825200000000    -0.160376   
O158     O      0.130580000000     0.439730000000     0.828170000000    -0.263057   
O159     O      0.178990000000     0.426070000000     0.788180000000    -0.163088   
O160     O      0.315590000000     0.529640000000     0.826070000000    -0.15886    
O161     O      0.367500000000     0.066690000000     0.831400000000    -0.264483   
O162     O      0.319990000000     0.083560000000     0.791490000000    -0.16603    
O163     O      0.475830000000     0.321100000000     0.827890000000    -0.171027   
O164     O      0.438730000000     0.373160000000     0.833170000000    -0.27322    
O165     O      0.421730000000     0.325760000000     0.793220000000    -0.161499   
O166     O      0.528030000000     0.186090000000     0.825570000000    -0.16199    
O167     O      0.565300000000     0.134190000000     0.828400000000    -0.265863   
O168     O      0.080500000000     0.182360000000     0.788700000000    -0.165619   
O169     O      0.507310000000     0.548750000000     0.276700000000    -0.547778   
O170     O      0.990520000000     0.960260000000     0.277620000000    -0.538514   
O171     O      0.043160000000     0.496170000000     0.276890000000    -0.542628   
O172     O      0.454550000000     0.012910000000     0.277260000000    -0.544822   
O173     O      0.453610000000     0.504370000000     0.225120000000    -0.551837   
O174     O      0.043590000000     0.003950000000     0.224620000000    -0.553781   
O175     O      0.498430000000     0.959010000000     0.225390000000    -0.542528   
O176     O      0.998890000000     0.549180000000     0.224530000000    -0.553887   
O177     O      0.031410000000     0.711880000000     0.257610000000    -0.53349    
O178     O      0.023090000000     0.801640000000     0.255860000000    -0.546655   
O179     O      0.025800000000     0.757580000000     0.301710000000    -0.537423   
O180     O      0.028730000000     0.757290000000     0.211960000000    -0.552114   
O181     O      0.475790000000     0.754260000000     0.210450000000    -0.551272   
O182     O      0.473690000000     0.748070000000     0.300140000000    -0.540054   
O183     O      0.470390000000     0.796610000000     0.258550000000    -0.532319   
O184     O      0.478950000000     0.707150000000     0.251950000000    -0.552442   
O185     O      0.201360000000     0.527490000000     0.252660000000    -0.550917   
O186     O      0.291060000000     0.535800000000     0.257080000000    -0.532309   
O187     O      0.247210000000     0.533170000000     0.209990000000    -0.550279   
O188     O      0.243970000000     0.530200000000     0.299750000000    -0.541399   
O189     O      0.252890000000     0.978040000000     0.298000000000    -0.537      
O190     O      0.250500000000     0.980290000000     0.208310000000    -0.547432   
O191     O      0.295880000000     0.983340000000     0.251570000000    -0.547625   
O192     O      0.206330000000     0.974790000000     0.254840000000    -0.537669   
O193     O      0.274870000000     0.003390000000     0.048660000000    -0.549457   
O194     O      0.273690000000     0.499610000000     0.458790000000    -0.536908   
O195     O      0.277410000000     0.546750000000     0.002010000000    -0.556973   
O196     O      0.271460000000     0.957400000000     0.505260000000    -0.546208   
O197     O      0.218800000000     0.960870000000     0.010350000000    -0.527482   
O198     O      0.224670000000     0.550520000000     0.498530000000    -0.53924    
O199     O      0.220650000000     0.001230000000     0.459550000000    -0.546202   
O200     O      0.222530000000     0.511710000000     0.048910000000    -0.531952   
O201     O      0.048770000000     0.775270000000     0.500510000000    -0.549685   
O202     O      0.459420000000     0.782770000000     0.007410000000    -0.550865   
O203     O      0.008190000000     0.781110000000     0.049480000000    -0.535199   
O204     O      0.501340000000     0.777000000000     0.460030000000    -0.55303    
O205     O      0.996010000000     0.724350000000     0.462820000000    -0.526195   
O206     O      0.502350000000     0.728510000000     0.052490000000    -0.550444   
O207     O      0.454990000000     0.730110000000     0.511600000000    -0.541428   
O208     O      0.044790000000     0.722600000000     0.005210000000    -0.537016   
O209     O      0.256540000000     0.706860000000     0.027360000000    -0.538124   
O210     O      0.242960000000     0.796180000000     0.033470000000    -0.520564   
O211     O      0.205400000000     0.745050000000     0.026020000000    -0.541013   
O212     O      0.294620000000     0.757140000000     0.034880000000    -0.530797   
O213     O      0.299110000000     0.759790000000     0.482290000000    -0.527964   
O214     O      0.209440000000     0.753010000000     0.474030000000    -0.535783   
O215     O      0.250890000000     0.800280000000     0.481450000000    -0.539974   
O216     O      0.257130000000     0.710910000000     0.474600000000    -0.54356    
O217     O      0.324240000000     0.837590000000     0.008030000000    -0.184665   
O218     O      0.371620000000     0.844500000000     0.965400000000    -0.270801   
O219     O      0.319700000000     0.810190000000     0.449600000000    -0.163822   
O220     O      0.178720000000     0.772720000000     0.420450000000    -0.151672   
O221     O      0.131870000000     0.815030000000     0.431040000000    -0.266096   
O222     O      0.185030000000     0.816780000000     0.966670000000    -0.153223   
O223     O      0.213390000000     0.827450000000     0.085450000000    -0.166964   
O224     O      0.167090000000     0.868690000000     0.067740000000    -0.265995   
O225     O      0.175730000000     0.814290000000     0.035300000000    -0.151286   
O226     O      0.310160000000     0.679670000000     0.058670000000    -0.167927   
O227     O      0.346120000000     0.633880000000     0.031120000000    -0.271198   
O228     O      0.331500000000     0.686920000000     0.498080000000    -0.1679     
O229     O      0.244220000000     0.924280000000     0.432360000000    -0.16866    
O230     O      0.286150000000     0.913530000000     0.385030000000    -0.267492   
O231     O      0.304750000000     0.947040000000     0.436500000000    -0.166283   
O232     O      0.181320000000     0.554670000000     0.077250000000    -0.16837    
O233     O      0.206020000000     0.594110000000     0.121590000000    -0.275751   
O234     O      0.239070000000     0.581910000000     0.068190000000    -0.172051   
O235     O      0.426420000000     0.732270000000     0.441870000000    -0.154469   
O236     O      0.417400000000     0.698530000000     0.388360000000    -0.261173   
O237     O      0.459180000000     0.677790000000     0.432720000000    -0.16283    
O238     O      0.548150000000     0.825930000000     0.079110000000    -0.163031   
O239     O      0.588320000000     0.803480000000     0.124040000000    -0.275834   
O240     O      0.077970000000     0.769410000000     0.070820000000    -0.169447   
O241     O      0.181390000000     0.978480000000     0.325200000000    -0.157595   
O242     O      0.130580000000     0.939730000000     0.328170000000    -0.262295   
O243     O      0.178990000000     0.926070000000     0.288180000000    -0.162901   
O244     O      0.315590000000     0.029640000000     0.326070000000    -0.161041   
O245     O      0.367500000000     0.566690000000     0.331400000000    -0.263966   
O246     O      0.319990000000     0.583560000000     0.291480000000    -0.165977   
O247     O      0.475830000000     0.821100000000     0.327890000000    -0.171056   
O248     O      0.438730000000     0.873160000000     0.333170000000    -0.272734   
O249     O      0.421730000000     0.825770000000     0.293220000000    -0.161359   
O250     O      0.528030000000     0.686090000000     0.325570000000    -0.162089   
O251     O      0.565300000000     0.634190000000     0.328400000000    -0.265863   
O252     O      0.080500000000     0.682360000000     0.288700000000    -0.165593   
O253     O      0.507310000000     0.548750000000     0.776700000000    -0.547693   
O254     O      0.990520000000     0.960260000000     0.777620000000    -0.538448   
O255     O      0.043160000000     0.496170000000     0.776890000000    -0.542538   
O256     O      0.454550000000     0.012910000000     0.777260000000    -0.544744   
O257     O      0.453610000000     0.504370000000     0.725120000000    -0.551773   
O258     O      0.043590000000     0.003950000000     0.724620000000    -0.553703   
O259     O      0.498430000000     0.959010000000     0.725390000000    -0.542472   
O260     O      0.998890000000     0.549180000000     0.724530000000    -0.553826   
O261     O      0.031410000000     0.711880000000     0.757600000000    -0.533526   
O262     O      0.023090000000     0.801640000000     0.755860000000    -0.546654   
O263     O      0.025800000000     0.757580000000     0.801710000000    -0.537421   
O264     O      0.028730000000     0.757290000000     0.711960000000    -0.552108   
O265     O      0.475790000000     0.754260000000     0.710450000000    -0.551261   
O266     O      0.473690000000     0.748070000000     0.800140000000    -0.540059   
O267     O      0.470390000000     0.796610000000     0.758550000000    -0.532328   
O268     O      0.478950000000     0.707150000000     0.751950000000    -0.55245    
O269     O      0.201360000000     0.527490000000     0.752660000000    -0.550915   
O270     O      0.291060000000     0.535800000000     0.757080000000    -0.532321   
O271     O      0.247210000000     0.533170000000     0.709990000000    -0.550258   
O272     O      0.243970000000     0.530200000000     0.799750000000    -0.541367   
O273     O      0.252890000000     0.978040000000     0.798000000000    -0.53701    
O274     O      0.250500000000     0.980290000000     0.708310000000    -0.54741    
O275     O      0.295880000000     0.983340000000     0.751570000000    -0.54763    
O276     O      0.206330000000     0.974790000000     0.754840000000    -0.537675   
O277     O      0.274870000000     0.003390000000     0.548660000000    -0.550288   
O278     O      0.273690000000     0.499610000000     0.958790000000    -0.532281   
O279     O      0.277410000000     0.546750000000     0.502010000000    -0.55177    
O280     O      0.271460000000     0.957400000000     0.005260000000    -0.547575   
O281     O      0.218800000000     0.960870000000     0.510350000000    -0.528192   
O282     O      0.224670000000     0.550520000000     0.998530000000    -0.534895   
O283     O      0.220650000000     0.001230000000     0.959550000000    -0.540645   
O284     O      0.222530000000     0.511710000000     0.548910000000    -0.533516   
O285     O      0.048770000000     0.775270000000     0.000510000000    -0.549493   
O286     O      0.459420000000     0.782770000000     0.507410000000    -0.549861   
O287     O      0.008190000000     0.781110000000     0.549480000000    -0.536366   
O288     O      0.501340000000     0.777000000000     0.960030000000    -0.547923   
O289     O      0.996010000000     0.724350000000     0.962820000000    -0.521188   
O290     O      0.502350000000     0.728510000000     0.552490000000    -0.551651   
O291     O      0.454990000000     0.730110000000     0.011600000000    -0.541796   
O292     O      0.044790000000     0.722600000000     0.505210000000    -0.537834   
O293     O      0.256540000000     0.706860000000     0.527360000000    -0.533218   
O294     O      0.242960000000     0.796180000000     0.533470000000    -0.52231    
O295     O      0.205400000000     0.745050000000     0.526020000000    -0.536153   
O296     O      0.294620000000     0.757140000000     0.534880000000    -0.532553   
O297     O      0.299110000000     0.759790000000     0.982290000000    -0.523229   
O298     O      0.209440000000     0.753010000000     0.974030000000    -0.537592   
O299     O      0.250890000000     0.800280000000     0.981450000000    -0.535266   
O300     O      0.257130000000     0.710910000000     0.974600000000    -0.54527    
O301     O      0.324240000000     0.837590000000     0.508030000000    -0.178874   
O302     O      0.371620000000     0.844500000000     0.465400000000    -0.271002   
O303     O      0.319700000000     0.810190000000     0.949600000000    -0.164208   
O304     O      0.178720000000     0.772720000000     0.920450000000    -0.15159    
O305     O      0.131870000000     0.815030000000     0.931040000000    -0.265895   
O306     O      0.185030000000     0.816780000000     0.466670000000    -0.155281   
O307     O      0.213390000000     0.827450000000     0.585450000000    -0.166986   
O308     O      0.167090000000     0.868690000000     0.567740000000    -0.265296   
O309     O      0.175730000000     0.814290000000     0.535300000000    -0.149243   
O310     O      0.310160000000     0.679670000000     0.558670000000    -0.168303   
O311     O      0.346120000000     0.633880000000     0.531120000000    -0.271049   
O312     O      0.331500000000     0.686920000000     0.998080000000    -0.161788   
O313     O      0.244220000000     0.924280000000     0.932360000000    -0.167474   
O314     O      0.286150000000     0.913530000000     0.885030000000    -0.267421   
O315     O      0.304750000000     0.947040000000     0.936500000000    -0.164833   
O316     O      0.181320000000     0.554670000000     0.577250000000    -0.167409   
O317     O      0.206020000000     0.594110000000     0.621590000000    -0.275762   
O318     O      0.239070000000     0.581910000000     0.568190000000    -0.170825   
O319     O      0.426420000000     0.732270000000     0.941870000000    -0.152825   
O320     O      0.417400000000     0.698530000000     0.888360000000    -0.260944   
O321     O      0.459180000000     0.677790000000     0.932720000000    -0.161177   
O322     O      0.548150000000     0.825930000000     0.579110000000    -0.162317   
O323     O      0.588320000000     0.803480000000     0.624040000000    -0.275815   
O324     O      0.077970000000     0.769410000000     0.570820000000    -0.169065   
O325     O      0.181390000000     0.978480000000     0.825200000000    -0.157403   
O326     O      0.130580000000     0.939730000000     0.828170000000    -0.261959   
O327     O      0.178990000000     0.926070000000     0.788180000000    -0.162895   
O328     O      0.315590000000     0.029640000000     0.826070000000    -0.160834   
O329     O      0.367500000000     0.566690000000     0.831400000000    -0.263592   
O330     O      0.319990000000     0.583560000000     0.791490000000    -0.165947   
O331     O      0.475830000000     0.821100000000     0.827890000000    -0.170898   
O332     O      0.438730000000     0.873160000000     0.833170000000    -0.272535   
O333     O      0.421730000000     0.825770000000     0.793220000000    -0.161365   
O334     O      0.528030000000     0.686090000000     0.825570000000    -0.161913   
O335     O      0.565300000000     0.634190000000     0.828400000000    -0.265505   
O336     O      0.080500000000     0.682360000000     0.788700000000    -0.165552   
O337     O      0.007310000000     0.048750000000     0.276700000000    -0.542544   
O338     O      0.490520000000     0.460260000000     0.277620000000    -0.54622    
O339     O      0.543160000000     0.996170000000     0.276890000000    -0.542157   
O340     O      0.954550000000     0.512910000000     0.277260000000    -0.544667   
O341     O      0.953610000000     0.004370000000     0.225120000000    -0.552832   
O342     O      0.543590000000     0.503950000000     0.224620000000    -0.551394   
O343     O      0.998430000000     0.459010000000     0.225390000000    -0.549437   
O344     O      0.498890000000     0.049180000000     0.224530000000    -0.548459   
O345     O      0.531410000000     0.211880000000     0.257610000000    -0.531878   
O346     O      0.523090000000     0.301640000000     0.255860000000    -0.550792   
O347     O      0.525800000000     0.257580000000     0.301710000000    -0.541515   
O348     O      0.528730000000     0.257280000000     0.211960000000    -0.550634   
O349     O      0.975790000000     0.254260000000     0.210450000000    -0.555592   
O350     O      0.973690000000     0.248070000000     0.300140000000    -0.538741   
O351     O      0.970390000000     0.296600000000     0.258550000000    -0.531098   
O352     O      0.978950000000     0.207150000000     0.251950000000    -0.556622   
O353     O      0.701360000000     0.027490000000     0.252660000000    -0.556729   
O354     O      0.791060000000     0.035800000000     0.257080000000    -0.529913   
O355     O      0.747210000000     0.033170000000     0.209990000000    -0.547944   
O356     O      0.743970000000     0.030200000000     0.299750000000    -0.539213   
O357     O      0.752890000000     0.478040000000     0.298000000000    -0.543123   
O358     O      0.750500000000     0.480290000000     0.208310000000    -0.553747   
O359     O      0.795880000000     0.483340000000     0.251570000000    -0.55402    
O360     O      0.706330000000     0.474790000000     0.254840000000    -0.535862   
O361     O      0.774870000000     0.503390000000     0.048660000000    -0.549601   
O362     O      0.773690000000     0.999610000000     0.458790000000    -0.531436   
O363     O      0.777410000000     0.046750000000     0.002010000000    -0.555134   
O364     O      0.771460000000     0.457400000000     0.505260000000    -0.552988   
O365     O      0.718800000000     0.460870000000     0.010350000000    -0.533515   
O366     O      0.724670000000     0.050520000000     0.498530000000    -0.538347   
O367     O      0.720660000000     0.501230000000     0.459550000000    -0.539624   
O368     O      0.722530000000     0.011710000000     0.048910000000    -0.532424   
O369     O      0.548770000000     0.275270000000     0.500510000000    -0.548308   
O370     O      0.959420000000     0.282770000000     0.007410000000    -0.555747   
O371     O      0.508190000000     0.281110000000     0.049480000000    -0.535057   
O372     O      0.001340000000     0.277000000000     0.460030000000    -0.549006   
O373     O      0.496010000000     0.224350000000     0.462820000000    -0.529038   
O374     O      0.002350000000     0.228510000000     0.052490000000    -0.543989   
O375     O      0.955000000000     0.230110000000     0.511600000000    -0.539745   
O376     O      0.544790000000     0.222600000000     0.005210000000    -0.542248   
O377     O      0.756550000000     0.206860000000     0.027360000000    -0.538103   
O378     O      0.742960000000     0.296180000000     0.033470000000    -0.520561   
O379     O      0.705400000000     0.245050000000     0.026020000000    -0.541      
O380     O      0.794620000000     0.257140000000     0.034880000000    -0.530823   
O381     O      0.799110000000     0.259790000000     0.482290000000    -0.528002   
O382     O      0.709450000000     0.253010000000     0.474030000000    -0.535914   
O383     O      0.750890000000     0.300280000000     0.481450000000    -0.540003   
O384     O      0.757130000000     0.210910000000     0.474600000000    -0.543629   
O385     O      0.824240000000     0.337590000000     0.008030000000    -0.185123   
O386     O      0.871620000000     0.344500000000     0.965400000000    -0.271484   
O387     O      0.819700000000     0.310200000000     0.449600000000    -0.163884   
O388     O      0.678720000000     0.272710000000     0.420450000000    -0.151749   
O389     O      0.631870000000     0.315030000000     0.431040000000    -0.266427   
O390     O      0.685030000000     0.316780000000     0.966670000000    -0.153405   
O391     O      0.713390000000     0.327450000000     0.085450000000    -0.167153   
O392     O      0.667090000000     0.368690000000     0.067740000000    -0.266676   
O393     O      0.675730000000     0.314290000000     0.035300000000    -0.151419   
O394     O      0.810160000000     0.179670000000     0.058670000000    -0.168044   
O395     O      0.846120000000     0.133880000000     0.031120000000    -0.271749   
O396     O      0.831500000000     0.186920000000     0.498080000000    -0.168002   
O397     O      0.744220000000     0.424280000000     0.432360000000    -0.169287   
O398     O      0.786150000000     0.413530000000     0.385030000000    -0.267932   
O399     O      0.804750000000     0.447040000000     0.436500000000    -0.167939   
O400     O      0.681320000000     0.054670000000     0.077250000000    -0.169788   
O401     O      0.706020000000     0.094110000000     0.121590000000    -0.276056   
O402     O      0.739070000000     0.081910000000     0.068190000000    -0.172119   
O403     O      0.926420000000     0.232270000000     0.441870000000    -0.154603   
O404     O      0.917400000000     0.198530000000     0.388360000000    -0.26124    
O405     O      0.959180000000     0.177790000000     0.432720000000    -0.16402    
O406     O      0.048150000000     0.325930000000     0.079110000000    -0.162842   
O407     O      0.088320000000     0.303480000000     0.124040000000    -0.275769   
O408     O      0.577970000000     0.269410000000     0.070820000000    -0.169614   
O409     O      0.681390000000     0.478480000000     0.325200000000    -0.160698   
O410     O      0.630580000000     0.439730000000     0.328170000000    -0.263774   
O411     O      0.678990000000     0.426070000000     0.288180000000    -0.163169   
O412     O      0.815580000000     0.529640000000     0.326070000000    -0.159083   
O413     O      0.867500000000     0.066690000000     0.331400000000    -0.265076   
O414     O      0.819990000000     0.083560000000     0.291480000000    -0.166101   
O415     O      0.975840000000     0.321100000000     0.327890000000    -0.172641   
O416     O      0.938730000000     0.373160000000     0.333170000000    -0.273907   
O417     O      0.921730000000     0.325760000000     0.293220000000    -0.161579   
O418     O      0.028030000000     0.186090000000     0.325570000000    -0.160056   
O419     O      0.065300000000     0.134190000000     0.328400000000    -0.265499   
O420     O      0.580500000000     0.182360000000     0.288700000000    -0.165799   
O421     O      0.007310000000     0.048750000000     0.776700000000    -0.542466   
O422     O      0.490520000000     0.460260000000     0.777620000000    -0.546136   
O423     O      0.543160000000     0.996170000000     0.776890000000    -0.542082   
O424     O      0.954550000000     0.512910000000     0.777260000000    -0.544586   
O425     O      0.953610000000     0.004370000000     0.725120000000    -0.552765   
O426     O      0.543590000000     0.503950000000     0.724620000000    -0.55133    
O427     O      0.998430000000     0.459010000000     0.725390000000    -0.549373   
O428     O      0.498890000000     0.049180000000     0.724530000000    -0.548398   
O429     O      0.531410000000     0.211880000000     0.757600000000    -0.531914   
O430     O      0.523090000000     0.301640000000     0.755860000000    -0.55079    
O431     O      0.525800000000     0.257580000000     0.801710000000    -0.541509   
O432     O      0.528730000000     0.257280000000     0.711960000000    -0.550629   
O433     O      0.975790000000     0.254260000000     0.710450000000    -0.555583   
O434     O      0.973690000000     0.248070000000     0.800140000000    -0.538747   
O435     O      0.970390000000     0.296600000000     0.758550000000    -0.531106   
O436     O      0.978950000000     0.207150000000     0.751950000000    -0.556629   
O437     O      0.701360000000     0.027490000000     0.752660000000    -0.556715   
O438     O      0.791060000000     0.035800000000     0.757080000000    -0.52993    
O439     O      0.747210000000     0.033170000000     0.709990000000    -0.547926   
O440     O      0.743970000000     0.030200000000     0.799750000000    -0.539186   
O441     O      0.752890000000     0.478040000000     0.798000000000    -0.543116   
O442     O      0.750500000000     0.480290000000     0.708310000000    -0.553717   
O443     O      0.795880000000     0.483340000000     0.751570000000    -0.554011   
O444     O      0.706330000000     0.474790000000     0.754840000000    -0.535872   
O445     O      0.774870000000     0.503390000000     0.548660000000    -0.55044    
O446     O      0.773690000000     0.999610000000     0.958790000000    -0.526846   
O447     O      0.777410000000     0.046750000000     0.502010000000    -0.549925   
O448     O      0.771460000000     0.457400000000     0.005260000000    -0.554352   
O449     O      0.718800000000     0.460870000000     0.510350000000    -0.534227   
O450     O      0.724670000000     0.050520000000     0.998530000000    -0.533997   
O451     O      0.720660000000     0.501230000000     0.959550000000    -0.534096   
O452     O      0.722530000000     0.011710000000     0.548910000000    -0.533988   
O453     O      0.548770000000     0.275270000000     0.000510000000    -0.548117   
O454     O      0.959420000000     0.282770000000     0.507410000000    -0.554758   
O455     O      0.508190000000     0.281110000000     0.549480000000    -0.536228   
O456     O      0.001340000000     0.277000000000     0.960030000000    -0.543914   
O457     O      0.496010000000     0.224350000000     0.962820000000    -0.523993   
O458     O      0.002350000000     0.228510000000     0.552490000000    -0.545175   
O459     O      0.955000000000     0.230110000000     0.011600000000    -0.540118   
O460     O      0.544790000000     0.222600000000     0.505210000000    -0.543089   
O461     O      0.756550000000     0.206860000000     0.527360000000    -0.533188   
O462     O      0.742960000000     0.296180000000     0.533470000000    -0.522312   
O463     O      0.705400000000     0.245050000000     0.526020000000    -0.536122   
O464     O      0.794620000000     0.257140000000     0.534880000000    -0.532581   
O465     O      0.799110000000     0.259790000000     0.982290000000    -0.523259   
O466     O      0.709450000000     0.253010000000     0.974030000000    -0.537729   
O467     O      0.750890000000     0.300280000000     0.981450000000    -0.535279   
O468     O      0.757130000000     0.210910000000     0.974600000000    -0.545345   
O469     O      0.824240000000     0.337590000000     0.508030000000    -0.179319   
O470     O      0.871620000000     0.344500000000     0.465400000000    -0.271688   
O471     O      0.819700000000     0.310200000000     0.949600000000    -0.164271   
O472     O      0.678720000000     0.272710000000     0.920450000000    -0.151667   
O473     O      0.631870000000     0.315030000000     0.931040000000    -0.266223   
O474     O      0.685030000000     0.316780000000     0.466670000000    -0.155474   
O475     O      0.713390000000     0.327450000000     0.585450000000    -0.167174   
O476     O      0.667090000000     0.368690000000     0.567740000000    -0.265975   
O477     O      0.675730000000     0.314290000000     0.535300000000    -0.149368   
O478     O      0.810160000000     0.179670000000     0.558670000000    -0.16842    
O479     O      0.846120000000     0.133880000000     0.531120000000    -0.271605   
O480     O      0.831500000000     0.186920000000     0.998080000000    -0.161883   
O481     O      0.744220000000     0.424280000000     0.932360000000    -0.168091   
O482     O      0.786150000000     0.413530000000     0.885030000000    -0.267859   
O483     O      0.804750000000     0.447040000000     0.936500000000    -0.166477   
O484     O      0.681320000000     0.054670000000     0.577250000000    -0.168828   
O485     O      0.706020000000     0.094110000000     0.621590000000    -0.276068   
O486     O      0.739070000000     0.081910000000     0.568190000000    -0.170892   
O487     O      0.926420000000     0.232270000000     0.941870000000    -0.152958   
O488     O      0.917400000000     0.198530000000     0.888360000000    -0.26101    
O489     O      0.959180000000     0.177790000000     0.932720000000    -0.162367   
O490     O      0.048150000000     0.325930000000     0.579110000000    -0.162127   
O491     O      0.088320000000     0.303480000000     0.624040000000    -0.27575    
O492     O      0.577970000000     0.269410000000     0.570820000000    -0.169231   
O493     O      0.681390000000     0.478480000000     0.825200000000    -0.160493   
O494     O      0.630580000000     0.439730000000     0.828170000000    -0.26343    
O495     O      0.678990000000     0.426070000000     0.788180000000    -0.163162   
O496     O      0.815580000000     0.529640000000     0.826070000000    -0.158882   
O497     O      0.867500000000     0.066690000000     0.831400000000    -0.2647     
O498     O      0.819990000000     0.083560000000     0.791490000000    -0.166071   
O499     O      0.975840000000     0.321100000000     0.827890000000    -0.172481   
O500     O      0.938730000000     0.373160000000     0.833170000000    -0.273704   
O501     O      0.921730000000     0.325760000000     0.793220000000    -0.161584   
O502     O      0.028030000000     0.186090000000     0.825570000000    -0.159884   
O503     O      0.065300000000     0.134190000000     0.828400000000    -0.265143   
O504     O      0.580500000000     0.182360000000     0.788700000000    -0.165757   
O505     O      0.007310000000     0.548750000000     0.276700000000    -0.544242   
O506     O      0.490520000000     0.960260000000     0.277620000000    -0.539351   
O507     O      0.543160000000     0.496170000000     0.276890000000    -0.547272   
O508     O      0.954550000000     0.012910000000     0.277260000000    -0.543504   
O509     O      0.953610000000     0.504370000000     0.225120000000    -0.551135   
O510     O      0.543590000000     0.003950000000     0.224620000000    -0.557837   
O511     O      0.998430000000     0.959010000000     0.225390000000    -0.543701   
O512     O      0.498890000000     0.549180000000     0.224530000000    -0.549444   
O513     O      0.531410000000     0.711880000000     0.257610000000    -0.531896   
O514     O      0.523090000000     0.801640000000     0.255860000000    -0.550771   
O515     O      0.525800000000     0.757580000000     0.301710000000    -0.541515   
O516     O      0.528730000000     0.757290000000     0.211960000000    -0.550616   
O517     O      0.975790000000     0.754260000000     0.210450000000    -0.555496   
O518     O      0.973690000000     0.748070000000     0.300140000000    -0.538718   
O519     O      0.970390000000     0.796610000000     0.258550000000    -0.530962   
O520     O      0.978950000000     0.707150000000     0.251950000000    -0.55655    
O521     O      0.701360000000     0.527490000000     0.252660000000    -0.55095    
O522     O      0.791060000000     0.535800000000     0.257080000000    -0.53231    
O523     O      0.747210000000     0.533170000000     0.209990000000    -0.550293   
O524     O      0.743970000000     0.530200000000     0.299750000000    -0.541404   
O525     O      0.752890000000     0.978040000000     0.298000000000    -0.536982   
O526     O      0.750500000000     0.980290000000     0.208310000000    -0.547438   
O527     O      0.795880000000     0.983340000000     0.251570000000    -0.54763    
O528     O      0.706330000000     0.974790000000     0.254840000000    -0.537686   
O529     O      0.774870000000     0.003390000000     0.048660000000    -0.549534   
O530     O      0.773690000000     0.499610000000     0.458790000000    -0.537028   
O531     O      0.777410000000     0.546750000000     0.002010000000    -0.55703    
O532     O      0.771460000000     0.957400000000     0.505260000000    -0.54625    
O533     O      0.718800000000     0.960870000000     0.010350000000    -0.527558   
O534     O      0.724670000000     0.550520000000     0.498530000000    -0.539314   
O535     O      0.720660000000     0.001230000000     0.459550000000    -0.546531   
O536     O      0.722530000000     0.511710000000     0.048910000000    -0.532015   
O537     O      0.548770000000     0.775270000000     0.500510000000    -0.548239   
O538     O      0.959420000000     0.782770000000     0.007410000000    -0.555581   
O539     O      0.508190000000     0.781110000000     0.049480000000    -0.534963   
O540     O      0.001340000000     0.777000000000     0.460030000000    -0.548926   
O541     O      0.496010000000     0.724350000000     0.462820000000    -0.528983   
O542     O      0.002350000000     0.728510000000     0.052490000000    -0.543937   
O543     O      0.955000000000     0.730110000000     0.511600000000    -0.539702   
O544     O      0.544790000000     0.722600000000     0.005210000000    -0.542164   
O545     O      0.756550000000     0.706860000000     0.027360000000    -0.538101   
O546     O      0.742960000000     0.796180000000     0.033470000000    -0.520553   
O547     O      0.705400000000     0.745050000000     0.026020000000    -0.540995   
O548     O      0.794620000000     0.757140000000     0.034880000000    -0.530803   
O549     O      0.799110000000     0.759790000000     0.482290000000    -0.528005   
O550     O      0.709450000000     0.753010000000     0.474030000000    -0.535919   
O551     O      0.750890000000     0.800280000000     0.481450000000    -0.540007   
O552     O      0.757130000000     0.710910000000     0.474600000000    -0.543608   
O553     O      0.824240000000     0.837590000000     0.008030000000    -0.184818   
O554     O      0.871620000000     0.844500000000     0.965400000000    -0.271211   
O555     O      0.819700000000     0.810190000000     0.449600000000    -0.16384    
O556     O      0.678720000000     0.772720000000     0.420450000000    -0.151758   
O557     O      0.631870000000     0.815030000000     0.431040000000    -0.266287   
O558     O      0.685030000000     0.816780000000     0.966670000000    -0.153246   
O559     O      0.713390000000     0.827450000000     0.085450000000    -0.166997   
O560     O      0.667090000000     0.868690000000     0.067740000000    -0.26617    
O561     O      0.675730000000     0.814290000000     0.035300000000    -0.151326   
O562     O      0.810160000000     0.679670000000     0.058670000000    -0.167968   
O563     O      0.846120000000     0.633880000000     0.031120000000    -0.271338   
O564     O      0.831500000000     0.686920000000     0.498080000000    -0.167929   
O565     O      0.744220000000     0.924280000000     0.432360000000    -0.168711   
O566     O      0.786150000000     0.913530000000     0.385030000000    -0.267532   
O567     O      0.804750000000     0.947040000000     0.436500000000    -0.166452   
O568     O      0.681320000000     0.554670000000     0.077250000000    -0.168763   
O569     O      0.706020000000     0.594110000000     0.121590000000    -0.275837   
O570     O      0.739070000000     0.581910000000     0.068190000000    -0.17209    
O571     O      0.926420000000     0.732270000000     0.441870000000    -0.154564   
O572     O      0.917400000000     0.698530000000     0.388360000000    -0.261206   
O573     O      0.959180000000     0.677790000000     0.432720000000    -0.16366    
O574     O      0.048150000000     0.825930000000     0.079110000000    -0.162233   
O575     O      0.088320000000     0.803480000000     0.124040000000    -0.275633   
O576     O      0.577970000000     0.769410000000     0.070820000000    -0.169575   
O577     O      0.681390000000     0.978480000000     0.325200000000    -0.157702   
O578     O      0.630580000000     0.939730000000     0.328170000000    -0.262663   
O579     O      0.678990000000     0.926070000000     0.288180000000    -0.162974   
O580     O      0.815580000000     0.029640000000     0.326070000000    -0.161065   
O581     O      0.867500000000     0.566690000000     0.331400000000    -0.264182   
O582     O      0.819990000000     0.583560000000     0.291480000000    -0.166017   
O583     O      0.975840000000     0.821100000000     0.327890000000    -0.172506   
O584     O      0.938730000000     0.873160000000     0.333170000000    -0.273216   
O585     O      0.921730000000     0.825770000000     0.293220000000    -0.161443   
O586     O      0.028030000000     0.686090000000     0.325570000000    -0.159987   
O587     O      0.065300000000     0.634190000000     0.328400000000    -0.265143   
O588     O      0.580500000000     0.682360000000     0.288700000000    -0.165731   
O589     O      0.007310000000     0.548750000000     0.776700000000    -0.544161   
O590     O      0.490520000000     0.960260000000     0.777620000000    -0.539285   
O591     O      0.543160000000     0.496170000000     0.776890000000    -0.547181   
O592     O      0.954550000000     0.012910000000     0.777260000000    -0.543426   
O593     O      0.953610000000     0.504370000000     0.725120000000    -0.55107    
O594     O      0.543590000000     0.003950000000     0.724620000000    -0.557761   
O595     O      0.998430000000     0.959010000000     0.725390000000    -0.543646   
O596     O      0.498890000000     0.549180000000     0.724530000000    -0.549382   
O597     O      0.531410000000     0.711880000000     0.757600000000    -0.531933   
O598     O      0.523090000000     0.801640000000     0.755860000000    -0.55077    
O599     O      0.525800000000     0.757580000000     0.801710000000    -0.541509   
O600     O      0.528730000000     0.757290000000     0.711960000000    -0.550611   
O601     O      0.975790000000     0.754260000000     0.710450000000    -0.555488   
O602     O      0.973690000000     0.748070000000     0.800140000000    -0.538724   
O603     O      0.970390000000     0.796610000000     0.758550000000    -0.530971   
O604     O      0.978950000000     0.707150000000     0.751950000000    -0.556558   
O605     O      0.701360000000     0.527490000000     0.752660000000    -0.550948   
O606     O      0.791060000000     0.535800000000     0.757080000000    -0.532322   
O607     O      0.747210000000     0.533170000000     0.709990000000    -0.550271   
O608     O      0.743970000000     0.530200000000     0.799750000000    -0.541372   
O609     O      0.752890000000     0.978040000000     0.798000000000    -0.536993   
O610     O      0.750500000000     0.980290000000     0.708310000000    -0.547416   
O611     O      0.795880000000     0.983340000000     0.751570000000    -0.547635   
O612     O      0.706330000000     0.974790000000     0.754840000000    -0.537692   
O613     O      0.774870000000     0.003390000000     0.548660000000    -0.550365   
O614     O      0.773690000000     0.499610000000     0.958790000000    -0.532404   
O615     O      0.777410000000     0.546750000000     0.502010000000    -0.551828   
O616     O      0.771460000000     0.957400000000     0.005260000000    -0.547616   
O617     O      0.718800000000     0.960870000000     0.510350000000    -0.528269   
O618     O      0.724670000000     0.550520000000     0.998530000000    -0.534964   
O619     O      0.720660000000     0.001230000000     0.959550000000    -0.540969   
O620     O      0.722530000000     0.511710000000     0.548910000000    -0.53358    
O621     O      0.548770000000     0.775270000000     0.000510000000    -0.548049   
O622     O      0.959420000000     0.782770000000     0.507410000000    -0.554595   
O623     O      0.508190000000     0.781110000000     0.549480000000    -0.536131   
O624     O      0.001340000000     0.777000000000     0.960030000000    -0.543849   
O625     O      0.496010000000     0.724350000000     0.962820000000    -0.523948   
O626     O      0.002350000000     0.728510000000     0.552490000000    -0.545121   
O627     O      0.955000000000     0.730110000000     0.011600000000    -0.540075   
O628     O      0.544790000000     0.722600000000     0.505210000000    -0.543001   
O629     O      0.756550000000     0.706860000000     0.527360000000    -0.533194   
O630     O      0.742960000000     0.796180000000     0.533470000000    -0.522299   
O631     O      0.705400000000     0.745050000000     0.526020000000    -0.53613    
O632     O      0.794620000000     0.757140000000     0.534880000000    -0.532557   
O633     O      0.799110000000     0.759790000000     0.982290000000    -0.523276   
O634     O      0.709450000000     0.753010000000     0.974030000000    -0.537729   
O635     O      0.750890000000     0.800280000000     0.981450000000    -0.5353     
O636     O      0.757130000000     0.710910000000     0.974600000000    -0.545319   
O637     O      0.824240000000     0.837590000000     0.508030000000    -0.179035   
O638     O      0.871620000000     0.844500000000     0.465400000000    -0.271412   
O639     O      0.819700000000     0.810190000000     0.949600000000    -0.164225   
O640     O      0.678720000000     0.772720000000     0.920450000000    -0.151675   
O641     O      0.631870000000     0.815030000000     0.931040000000    -0.266084   
O642     O      0.685030000000     0.816780000000     0.466670000000    -0.155307   
O643     O      0.713390000000     0.827450000000     0.585450000000    -0.167019   
O644     O      0.667090000000     0.868690000000     0.567740000000    -0.265471   
O645     O      0.675730000000     0.814290000000     0.535300000000    -0.14928    
O646     O      0.810160000000     0.679670000000     0.558670000000    -0.168344   
O647     O      0.846120000000     0.633880000000     0.531120000000    -0.271192   
O648     O      0.831500000000     0.686920000000     0.998080000000    -0.161823   
O649     O      0.744220000000     0.924280000000     0.932360000000    -0.167523   
O650     O      0.786150000000     0.913530000000     0.885030000000    -0.267461   
O651     O      0.804750000000     0.947040000000     0.936500000000    -0.165003   
O652     O      0.681320000000     0.554670000000     0.577250000000    -0.167801   
O653     O      0.706020000000     0.594110000000     0.621590000000    -0.275849   
O654     O      0.739070000000     0.581910000000     0.568190000000    -0.170864   
O655     O      0.926420000000     0.732270000000     0.941870000000    -0.152924   
O656     O      0.917400000000     0.698530000000     0.888360000000    -0.260976   
O657     O      0.959180000000     0.677790000000     0.932720000000    -0.162011   
O658     O      0.048150000000     0.825930000000     0.579110000000    -0.161521   
O659     O      0.088320000000     0.803480000000     0.624040000000    -0.275614   
O660     O      0.577970000000     0.769410000000     0.570820000000    -0.169192   
O661     O      0.681390000000     0.978480000000     0.825200000000    -0.15751    
O662     O      0.630580000000     0.939730000000     0.828170000000    -0.262325   
O663     O      0.678990000000     0.926070000000     0.788180000000    -0.162968   
O664     O      0.815580000000     0.029640000000     0.826070000000    -0.160859   
O665     O      0.867500000000     0.566690000000     0.831400000000    -0.263809   
O666     O      0.819990000000     0.583560000000     0.791490000000    -0.165988   
O667     O      0.975840000000     0.821100000000     0.827890000000    -0.172347   
O668     O      0.938730000000     0.873160000000     0.833170000000    -0.273017   
O669     O      0.921730000000     0.825770000000     0.793220000000    -0.161449   
O670     O      0.028030000000     0.686090000000     0.825570000000    -0.159815   
O671     O      0.065300000000     0.634190000000     0.828400000000    -0.264788   
O672     O      0.580500000000     0.682360000000     0.788700000000    -0.165689   
S1       S      0.343710000000     0.319530000000     0.979190000000     0.28652    
S2       S      0.159930000000     0.292690000000     0.448530000000     0.292343   
S3       S      0.194510000000     0.342810000000     0.054650000000     0.287074   
S4       S      0.318070000000     0.161530000000     0.024800000000     0.272187   
S5       S      0.274430000000     0.439760000000     0.412650000000     0.281214   
S6       S      0.214680000000     0.066150000000     0.094540000000     0.284699   
S7       S      0.444550000000     0.209820000000     0.415300000000     0.288442   
S8       S      0.560970000000     0.293330000000     0.096870000000     0.286666   
S9       S      0.158010000000     0.455390000000     0.303810000000     0.286199   
S10      S      0.339940000000     0.052980000000     0.306040000000     0.285431   
S11      S      0.452370000000     0.345450000000     0.307970000000     0.286039   
S12      S      0.550510000000     0.162170000000     0.304130000000     0.285783   
S13      S      0.343710000000     0.319530000000     0.479190000000     0.281009   
S14      S      0.159930000000     0.292690000000     0.948530000000     0.292538   
S15      S      0.194510000000     0.342810000000     0.554650000000     0.28711    
S16      S      0.318070000000     0.161530000000     0.524810000000     0.277597   
S17      S      0.274430000000     0.439760000000     0.912650000000     0.281272   
S18      S      0.214680000000     0.066150000000     0.594540000000     0.284875   
S19      S      0.444550000000     0.209820000000     0.915300000000     0.288582   
S20      S      0.560970000000     0.293330000000     0.596870000000     0.286711   
S21      S      0.158010000000     0.455390000000     0.803810000000     0.286223   
S22      S      0.339940000000     0.052980000000     0.806040000000     0.285491   
S23      S      0.452370000000     0.345450000000     0.807970000000     0.286037   
S24      S      0.550510000000     0.162170000000     0.804130000000     0.285804   
S25      S      0.343710000000     0.819540000000     0.979190000000     0.286579   
S26      S      0.159930000000     0.792680000000     0.448530000000     0.292373   
S27      S      0.194510000000     0.842810000000     0.054650000000     0.287159   
S28      S      0.318070000000     0.661530000000     0.024800000000     0.272233   
S29      S      0.274430000000     0.939760000000     0.412650000000     0.281736   
S30      S      0.214680000000     0.566150000000     0.094540000000     0.284805   
S31      S      0.444550000000     0.709820000000     0.415300000000     0.28845    
S32      S      0.560970000000     0.793330000000     0.096870000000     0.286695   
S33      S      0.158010000000     0.955390000000     0.303810000000     0.286259   
S34      S      0.339940000000     0.552980000000     0.306040000000     0.285515   
S35      S      0.452370000000     0.845450000000     0.307970000000     0.286145   
S36      S      0.550510000000     0.662170000000     0.304130000000     0.285831   
S37      S      0.343710000000     0.819540000000     0.479190000000     0.281088   
S38      S      0.159930000000     0.792680000000     0.948530000000     0.292567   
S39      S      0.194510000000     0.842810000000     0.554650000000     0.287195   
S40      S      0.318070000000     0.661530000000     0.524810000000     0.277634   
S41      S      0.274430000000     0.939760000000     0.912650000000     0.281792   
S42      S      0.214680000000     0.566150000000     0.594540000000     0.28498    
S43      S      0.444550000000     0.709820000000     0.915300000000     0.288589   
S44      S      0.560970000000     0.793330000000     0.596870000000     0.28674    
S45      S      0.158010000000     0.955390000000     0.803810000000     0.286283   
S46      S      0.339940000000     0.552980000000     0.806040000000     0.285575   
S47      S      0.452370000000     0.845450000000     0.807970000000     0.286141   
S48      S      0.550510000000     0.662170000000     0.804130000000     0.285852   
S49      S      0.843710000000     0.319530000000     0.979190000000     0.286482   
S50      S      0.659930000000     0.292690000000     0.448530000000     0.29231    
S51      S      0.694510000000     0.342810000000     0.054650000000     0.287075   
S52      S      0.818070000000     0.161530000000     0.024800000000     0.272196   
S53      S      0.774430000000     0.439760000000     0.412650000000     0.281219   
S54      S      0.714680000000     0.066150000000     0.094540000000     0.284669   
S55      S      0.944550000000     0.209820000000     0.415300000000     0.288321   
S56      S      0.060970000000     0.293330000000     0.096870000000     0.286821   
S57      S      0.658010000000     0.455390000000     0.303810000000     0.286145   
S58      S      0.839940000000     0.052980000000     0.306040000000     0.28535    
S59      S      0.952370000000     0.345450000000     0.307970000000     0.285921   
S60      S      0.050510000000     0.162170000000     0.304130000000     0.285848   
S61      S      0.843710000000     0.319530000000     0.479190000000     0.280976   
S62      S      0.659930000000     0.292690000000     0.948530000000     0.292506   
S63      S      0.694510000000     0.342810000000     0.554650000000     0.287111   
S64      S      0.818070000000     0.161530000000     0.524810000000     0.277599   
S65      S      0.774430000000     0.439760000000     0.912650000000     0.281277   
S66      S      0.714680000000     0.066150000000     0.594540000000     0.284845   
S67      S      0.944550000000     0.209820000000     0.915300000000     0.28846    
S68      S      0.060970000000     0.293330000000     0.596870000000     0.286866   
S69      S      0.658010000000     0.455390000000     0.803810000000     0.28617    
S70      S      0.839940000000     0.052980000000     0.806040000000     0.28541    
S71      S      0.952370000000     0.345450000000     0.807970000000     0.285918   
S72      S      0.050510000000     0.162170000000     0.804130000000     0.285868   
S73      S      0.843710000000     0.819540000000     0.979190000000     0.286541   
S74      S      0.659930000000     0.792680000000     0.448530000000     0.292341   
S75      S      0.694510000000     0.842810000000     0.054650000000     0.28716    
S76      S      0.818070000000     0.661530000000     0.024800000000     0.272242   
S77      S      0.774430000000     0.939760000000     0.412650000000     0.281742   
S78      S      0.714680000000     0.566150000000     0.094540000000     0.284775   
S79      S      0.944550000000     0.709820000000     0.415300000000     0.288329   
S80      S      0.060970000000     0.793330000000     0.096870000000     0.286849   
S81      S      0.658010000000     0.955390000000     0.303810000000     0.286207   
S82      S      0.839940000000     0.552980000000     0.306040000000     0.285435   
S83      S      0.952370000000     0.845450000000     0.307970000000     0.286026   
S84      S      0.050510000000     0.662170000000     0.304130000000     0.285896   
S85      S      0.843710000000     0.819540000000     0.479190000000     0.281055   
S86      S      0.659930000000     0.792680000000     0.948530000000     0.292536   
S87      S      0.694510000000     0.842810000000     0.554650000000     0.287196   
S88      S      0.818070000000     0.661530000000     0.524810000000     0.277636   
S89      S      0.774430000000     0.939760000000     0.912650000000     0.281798   
S90      S      0.714680000000     0.566150000000     0.594540000000     0.284951   
S91      S      0.944550000000     0.709820000000     0.915300000000     0.288468   
S92      S      0.060970000000     0.793330000000     0.596870000000     0.286894   
S93      S      0.658010000000     0.955390000000     0.803810000000     0.286231   
S94      S      0.839940000000     0.552980000000     0.806040000000     0.285495   
S95      S      0.952370000000     0.845450000000     0.807970000000     0.286023   
S96      S      0.050510000000     0.662170000000     0.804130000000     0.285915   
V1       V      0.998880000000     0.004540000000     0.279380000000     1.38071    
V2       V      0.998590000000     0.504090000000     0.222630000000     1.39432    
V3       V      0.029400000000     0.257190000000     0.256890000000     1.42925    
V4       V      0.472560000000     0.251450000000     0.255250000000     1.41518    
V5       V      0.245800000000     0.033820000000     0.254940000000     1.40757    
V6       V      0.251500000000     0.476990000000     0.253130000000     1.43089    
V7       V      0.276470000000     0.001740000000     0.003670000000     1.41685    
V8       V      0.219470000000     0.006080000000     0.504370000000     1.39012    
V9       V      0.004500000000     0.281140000000     0.004420000000     1.44284    
V10      V      0.499480000000     0.224240000000     0.008010000000     1.39872    
V11      V      0.249730000000     0.251180000000     0.032590000000     1.3902     
V12      V      0.254420000000     0.256020000000     0.476010000000     1.44771    
V13      V      0.998880000000     0.004540000000     0.779380000000     1.38109    
V14      V      0.998590000000     0.504090000000     0.722630000000     1.39443    
V15      V      0.029400000000     0.257190000000     0.756890000000     1.42923    
V16      V      0.472560000000     0.251450000000     0.755250000000     1.41512    
V17      V      0.245800000000     0.033820000000     0.754940000000     1.40756    
V18      V      0.251500000000     0.476990000000     0.753130000000     1.43081    
V19      V      0.276470000000     0.001740000000     0.503670000000     1.42193    
V20      V      0.219470000000     0.006080000000     0.004370000000     1.37696    
V21      V      0.004500000000     0.281140000000     0.504420000000     1.45037    
V22      V      0.499480000000     0.224240000000     0.508010000000     1.40584    
V23      V      0.249730000000     0.251180000000     0.532590000000     1.3963     
V24      V      0.254420000000     0.256020000000     0.976010000000     1.45391    
V25      V      0.998880000000     0.504540000000     0.279380000000     1.39717    
V26      V      0.998590000000     0.004090000000     0.222630000000     1.38822    
V27      V      0.029400000000     0.757190000000     0.256890000000     1.42927    
V28      V      0.472560000000     0.751450000000     0.255250000000     1.41486    
V29      V      0.245800000000     0.533820000000     0.254940000000     1.41642    
V30      V      0.251500000000     0.976980000000     0.253130000000     1.43743    
V31      V      0.276470000000     0.501740000000     0.003670000000     1.43386    
V32      V      0.219470000000     0.506080000000     0.504370000000     1.39582    
V33      V      0.004500000000     0.781140000000     0.004420000000     1.44321    
V34      V      0.499480000000     0.724240000000     0.008010000000     1.39886    
V35      V      0.249730000000     0.751180000000     0.032590000000     1.39018    
V36      V      0.254420000000     0.756020000000     0.476010000000     1.44765    
V37      V      0.998880000000     0.504540000000     0.779380000000     1.39751    
V38      V      0.998590000000     0.004090000000     0.722630000000     1.38834    
V39      V      0.029400000000     0.757190000000     0.756890000000     1.42925    
V40      V      0.472560000000     0.751450000000     0.755250000000     1.4148     
V41      V      0.245800000000     0.533820000000     0.754940000000     1.41639    
V42      V      0.251500000000     0.976980000000     0.753130000000     1.43733    
V43      V      0.276470000000     0.501740000000     0.503670000000     1.439      
V44      V      0.219470000000     0.506080000000     0.004370000000     1.38266    
V45      V      0.004500000000     0.781140000000     0.504420000000     1.45071    
V46      V      0.499480000000     0.724240000000     0.508010000000     1.40598    
V47      V      0.249730000000     0.751180000000     0.532590000000     1.39626    
V48      V      0.254420000000     0.756020000000     0.976010000000     1.45384    
V49      V      0.498870000000     0.004540000000     0.279380000000     1.39203    
V50      V      0.498590000000     0.504090000000     0.222630000000     1.39861    
V51      V      0.529400000000     0.257190000000     0.256890000000     1.42352    
V52      V      0.972550000000     0.251450000000     0.255250000000     1.40994    
V53      V      0.745800000000     0.033820000000     0.254940000000     1.40756    
V54      V      0.751500000000     0.476990000000     0.253130000000     1.4309     
V55      V      0.776470000000     0.001740000000     0.003670000000     1.41675    
V56      V      0.719470000000     0.006080000000     0.504370000000     1.38988    
V57      V      0.504500000000     0.281140000000     0.004420000000     1.42819    
V58      V      0.999480000000     0.224240000000     0.008010000000     1.37896    
V59      V      0.749730000000     0.251180000000     0.032590000000     1.39009    
V60      V      0.754420000000     0.256020000000     0.476010000000     1.44808    
V61      V      0.498870000000     0.004540000000     0.779380000000     1.39241    
V62      V      0.498590000000     0.504090000000     0.722630000000     1.39873    
V63      V      0.529400000000     0.257190000000     0.756890000000     1.4235     
V64      V      0.972550000000     0.251450000000     0.755250000000     1.40988    
V65      V      0.745800000000     0.033820000000     0.754940000000     1.40754    
V66      V      0.751500000000     0.476990000000     0.753130000000     1.43083    
V67      V      0.776470000000     0.001740000000     0.503670000000     1.42182    
V68      V      0.719470000000     0.006080000000     0.004370000000     1.37673    
V69      V      0.504500000000     0.281140000000     0.504420000000     1.43569    
V70      V      0.999480000000     0.224240000000     0.508010000000     1.38598    
V71      V      0.749730000000     0.251180000000     0.532590000000     1.39619    
V72      V      0.754420000000     0.256020000000     0.976010000000     1.45429    
V73      V      0.498870000000     0.504540000000     0.279380000000     1.40854    
V74      V      0.498590000000     0.004090000000     0.222630000000     1.39252    
V75      V      0.529400000000     0.757190000000     0.256890000000     1.42356    
V76      V      0.972550000000     0.751450000000     0.255250000000     1.40964    
V77      V      0.745800000000     0.533820000000     0.254940000000     1.41643    
V78      V      0.751500000000     0.976980000000     0.253130000000     1.43746    
V79      V      0.776470000000     0.501740000000     0.003670000000     1.43378    
V80      V      0.719470000000     0.506080000000     0.504370000000     1.3956     
V81      V      0.504500000000     0.781140000000     0.004420000000     1.42861    
V82      V      0.999480000000     0.724240000000     0.008010000000     1.37916    
V83      V      0.749730000000     0.751180000000     0.032590000000     1.39006    
V84      V      0.754420000000     0.756020000000     0.476010000000     1.44802    
V85      V      0.498870000000     0.504540000000     0.779380000000     1.40888    
V86      V      0.498590000000     0.004090000000     0.722630000000     1.39264    
V87      V      0.529400000000     0.757190000000     0.756890000000     1.42354    
V88      V      0.972550000000     0.751450000000     0.755250000000     1.40958    
V89      V      0.745800000000     0.533820000000     0.754940000000     1.4164     
V90      V      0.751500000000     0.976980000000     0.753130000000     1.43737    
V91      V      0.776470000000     0.501740000000     0.503670000000     1.43891    
V92      V      0.719470000000     0.506080000000     0.004370000000     1.38244    
V93      V      0.504500000000     0.781140000000     0.504420000000     1.43609    
V94      V      0.999480000000     0.724240000000     0.508010000000     1.38618    
V95      V      0.749730000000     0.751180000000     0.532590000000     1.39614    
V96      V      0.754420000000     0.756020000000     0.976010000000     1.45421    


