data_structure

_audit_creation_method RASPA-1.0
_audit_creation_date 2023-6-5
_audit_author_name 'Poobodin Mano'

_cell_length_a    34.8123
_cell_length_b    34.6871
_cell_length_c    41.4355
_cell_angle_alpha 89.9796
_cell_angle_beta  90.0205
_cell_angle_gamma 119.979
_cell_volume      43340.7

_symmetry_cell_setting          triclinic
_symmetry_space_group_name_Hall 'P 1'
_symmetry_space_group_name_H-M  'P 1'
_symmetry_Int_Tables_number     1

_symmetry_equiv_pos_as_xyz 'x,y,z'

loop_
_atom_site_label
_atom_site_type_symbol
_atom_site_fract_x
_atom_site_fract_y
_atom_site_fract_z
_atom_site_charge
C1       C      0.858080000000     0.666800000000     0.253150000000     0.473232   
C2       C      0.815000000000     0.660120000000     0.371140000000     0.473849   
C3       C      0.756880000000     0.621880000000     0.293840000000     0.479076   
C4       C      0.918000000000     0.705880000000     0.329940000000     0.474343   
C5       C      0.150120000000     0.824700000000     0.454070000000     0.479026   
C6       C      0.191060000000     0.862260000000     0.336350000000     0.481396   
C7       C      0.252280000000     0.888640000000     0.412680000000     0.47816    
C8       C      0.090370000000     0.800190000000     0.377860000000     0.478131   
C9       C      0.481960000000     0.009110000000     0.039750000000     0.474359   
C10      C      0.526940000000     0.017220000000     0.422190000000     0.473911   
C11      C      0.584090000000     0.052070000000     0.000110000000     0.474649   
C12      C      0.423810000000     0.974750000000     0.462200000000     0.474053   
C13      C      0.151260000000     0.337140000000     0.201640000000     0.480263   
C14      C      0.191480000000     0.336370000000     0.084150000000     0.476669   
C15      C      0.251870000000     0.371690000000     0.160650000000     0.473759   
C16      C      0.091350000000     0.301210000000     0.124070000000     0.47885    
C17      C      0.850750000000     0.194710000000     0.004910000000     0.488223   
C18      C      0.821790000000     0.167000000000     0.123830000000     0.488353   
C19      C      0.754180000000     0.137640000000     0.051460000000     0.479438   
C20      C      0.918870000000     0.222170000000     0.077670000000     0.475794   
C21      C      0.528320000000     0.512770000000     0.167490000000     0.480484   
C22      C      0.483770000000     0.476880000000     0.285010000000     0.476803   
C23      C      0.424330000000     0.451880000000     0.208340000000     0.477624   
C24      C      0.585730000000     0.535950000000     0.244060000000     0.47555    
C25      C      0.148920000000     0.338300000000     0.334140000000     0.477858   
C26      C      0.183740000000     0.329230000000     0.451870000000     0.481717   
C27      C      0.207460000000     0.294780000000     0.375020000000     0.482934   
C28      C      0.123550000000     0.372320000000     0.410270000000     0.477857   
C29      C      0.344390000000     0.156840000000     0.371660000000     0.476278   
C30      C      0.342330000000     0.194890000000     0.253570000000     0.480004   
C31      C      0.300480000000     0.214860000000     0.328990000000     0.478735   
C32      C      0.385960000000     0.137940000000     0.296290000000     0.482648   
C33      C      0.994230000000     0.519170000000     0.413110000000     0.478141   
C34      C      0.992970000000     0.477940000000     0.030590000000     0.480378   
C35      C      0.035290000000     0.458250000000     0.454170000000     0.480392   
C36      C      0.954690000000     0.539230000000     0.988940000000     0.476839   
C37      C      0.670110000000     0.856410000000     0.087160000000     0.475654   
C38      C      0.674310000000     0.819310000000     0.205180000000     0.47634    
C39      C      0.707530000000     0.792990000000     0.128970000000     0.477353   
C40      C      0.635680000000     0.882680000000     0.163390000000     0.476813   
C41      C      0.848950000000     0.659190000000     0.120630000000     0.478505   
C42      C      0.808470000000     0.663960000000     0.003370000000     0.477383   
C43      C      0.786810000000     0.700730000000     0.080040000000     0.480206   
C44      C      0.868590000000     0.621830000000     0.042760000000     0.482227   
C45      C      0.491250000000     0.013360000000     0.171930000000     0.478622   
C46      C      0.531830000000     0.012060000000     0.289500000000     0.477113   
C47      C      0.552140000000     0.971090000000     0.212060000000     0.480758   
C48      C      0.471830000000     0.051950000000     0.247900000000     0.477263   
C49      C      0.337720000000     0.145530000000     0.003710000000     0.479646   
C50      C      0.343610000000     0.189270000000     0.121230000000     0.476852   
C51      C      0.379340000000     0.247860000000     0.044870000000     0.477566   
C52      C      0.301840000000     0.085980000000     0.080000000000     0.480164   
C53      C      0.529950000000     0.519550000000     0.035360000000     0.477058   
C54      C      0.490110000000     0.480040000000     0.417570000000     0.481008   
C55      C      0.467700000000     0.418940000000     0.994600000000     0.48254    
C56      C      0.554040000000     0.580900000000     0.459970000000     0.480542   
C57      C      0.145240000000     0.814890000000     0.086390000000     0.482309   
C58      C      0.183000000000     0.854040000000     0.204230000000     0.479116   
C59      C      0.209420000000     0.913870000000     0.128530000000     0.477432   
C60      C      0.117960000000     0.751850000000     0.162060000000     0.476546   
C61      C      0.992000000000     0.518120000000     0.281100000000     0.478417   
C62      C      0.984680000000     0.474470000000     0.163230000000     0.476529   
C63      C      0.949390000000     0.414830000000     0.240300000000     0.477689   
C64      C      0.025980000000     0.576810000000     0.205190000000     0.478201   
C65      C      0.845400000000     0.188480000000     0.373070000000     0.486392   
C66      C      0.824180000000     0.154500000000     0.254530000000     0.49181    
C67      C      0.792340000000     0.087280000000     0.328810000000     0.483798   
C68      C      0.871420000000     0.249810000000     0.297280000000     0.483761   
C69      C      0.676820000000     0.857390000000     0.454710000000     0.480033   
C70      C      0.671320000000     0.812710000000     0.337400000000     0.479805   
C71      C      0.637780000000     0.754370000000     0.413940000000     0.477162   
C72      C      0.710790000000     0.915440000000     0.377770000000     0.477538   
C73      C      0.775470000000     0.982550000000     0.362340000000     0.030142   
C74      C      0.705170000000     0.975510000000     0.355210000000     0.0181746  
C75      C      0.795410000000     0.025140000000     0.349060000000     0.0296083  
C76      C      0.724820000000     0.018160000000     0.341590000000     0.0690034  
C77      C      0.916260000000     0.298530000000     0.256280000000     0.0299057  
C78      C      0.879510000000     0.321100000000     0.293120000000     0.0216797  
C79      C      0.937670000000     0.341370000000     0.242630000000     0.0354329  
C80      C      0.898790000000     0.362940000000     0.278680000000     0.068795   
C81      C      0.114600000000     0.683820000000     0.175930000000     0.0301394  
C82      C      0.050140000000     0.689400000000     0.179960000000     0.0182606  
C83      C      0.091360000000     0.640350000000     0.187380000000     0.0292726  
C84      C      0.026200000000     0.645340000000     0.191290000000     0.0676987  
C85      C      0.573020000000     0.687520000000     0.429140000000     0.0300635  
C86      C      0.642620000000     0.692140000000     0.433270000000     0.0178916  
C87      C      0.552640000000     0.644480000000     0.441400000000     0.0295037  
C88      C      0.622390000000     0.648620000000     0.445570000000     0.0679938  
C89      C      0.212870000000     0.981010000000     0.111870000000     0.0306369  
C90      C      0.277240000000     0.975050000000     0.109540000000     0.01813    
C91      C      0.236220000000     0.023610000000     0.098880000000     0.0297657  
C92      C      0.301240000000     0.018170000000     0.096620000000     0.0689137  
C93      C      0.378440000000     0.311600000000     0.023830000000     0.0310416  
C94      C      0.446220000000     0.313020000000     0.030960000000     0.0168653  
C95      C      0.401250000000     0.354680000000     0.011030000000     0.0310789  
C96      C      0.469330000000     0.356000000000     0.018340000000     0.069817   
C97      C      0.712520000000     0.832910000000     0.255180000000     0.0300376  
C98      C      0.635290000000     0.783970000000     0.253310000000     0.0165626  
C99      C      0.711550000000     0.829350000000     0.288750000000     0.0308356  
C100     C      0.633750000000     0.782020000000     0.287110000000     0.0708816  
C101     C      0.633590000000     0.841180000000     0.036390000000     0.0298829  
C102     C      0.710980000000     0.888830000000     0.039060000000     0.0161519  
C103     C      0.635690000000     0.842930000000     0.002770000000     0.0310832  
C104     C      0.713640000000     0.888800000000     0.005270000000     0.0705786  
C105     C      0.771260000000     0.789810000000     0.112540000000     0.0298533  
C106     C      0.700950000000     0.725320000000     0.109560000000     0.0180708  
C107     C      0.790430000000     0.766470000000     0.099440000000     0.02925    
C108     C      0.719910000000     0.701400000000     0.096450000000     0.0681949  
C109     C      0.639040000000     0.948960000000     0.183600000000     0.0308689  
C110     C      0.570070000000     0.883680000000     0.176880000000     0.0169914  
C111     C      0.617420000000     0.970680000000     0.195930000000     0.0307159  
C112     C      0.548130000000     0.904970000000     0.189060000000     0.0696673  
C113     C      0.033540000000     0.543240000000     0.363800000000     0.0302769  
C114     C      0.956710000000     0.516640000000     0.364900000000     0.0184645  
C115     C      0.032250000000     0.541400000000     0.330120000000     0.0289412  
C116     C      0.956020000000     0.519050000000     0.331180000000     0.0673219  
C117     C      0.024830000000     0.483120000000     0.114870000000     0.0292833  
C118     C      0.947310000000     0.452440000000     0.112770000000     0.017339   
C119     C      0.026770000000     0.485270000000     0.081240000000     0.03134    
C120     C      0.948650000000     0.452340000000     0.078970000000     0.0691535  
C121     C      0.955970000000     0.603670000000     0.010280000000     0.0311854  
C122     C      0.888160000000     0.536630000000     0.005190000000     0.0155171  
C123     C      0.933860000000     0.623800000000     0.024180000000     0.0305667  
C124     C      0.865670000000     0.556320000000     0.019190000000     0.0693446  
C125     C      0.381130000000     0.170070000000     0.422210000000     0.030007   
C126     C      0.304340000000     0.119380000000     0.418940000000     0.0168426  
C127     C      0.379260000000     0.165150000000     0.455670000000     0.031478   
C128     C      0.301780000000     0.116390000000     0.452710000000     0.0714252  
C129     C      0.305170000000     0.182660000000     0.170090000000     0.0302612  
C130     C      0.383180000000     0.218350000000     0.170130000000     0.0180431  
C131     C      0.305250000000     0.183230000000     0.203780000000     0.0317834  
C132     C      0.383710000000     0.221760000000     0.203850000000     0.0686737  
C133     C      0.406430000000     0.050980000000     0.265760000000     0.0313722  
C134     C      0.474650000000     0.118100000000     0.266270000000     0.0158026  
C135     C      0.385510000000     0.073030000000     0.278280000000     0.0302093  
C136     C      0.454280000000     0.140360000000     0.279680000000     0.0693658  
C137     C      0.057330000000     0.370300000000     0.428080000000     0.0314233  
C138     C      0.123560000000     0.438910000000     0.423120000000     0.0167971  
C139     C      0.035530000000     0.392450000000     0.439030000000     0.0305177  
C140     C      0.102100000000     0.461440000000     0.433850000000     0.0695909  
C141     C      0.298540000000     0.278570000000     0.348300000000     0.0316015  
C142     C      0.232070000000     0.210490000000     0.342060000000     0.0172871  
C143     C      0.274640000000     0.298050000000     0.360020000000     0.0309194  
C144     C      0.207750000000     0.229570000000     0.353840000000     0.0699167  
C145     C      0.493520000000     0.447750000000     0.334320000000     0.0300929  
C146     C      0.461330000000     0.493480000000     0.334610000000     0.0181833  
C147     C      0.496720000000     0.450420000000     0.367940000000     0.0314929  
C148     C      0.462400000000     0.494600000000     0.368370000000     0.0688679  
C149     C      0.516990000000     0.543190000000     0.085770000000     0.0303654  
C150     C      0.560500000000     0.508620000000     0.083540000000     0.0168201  
C151     C      0.517850000000     0.542270000000     0.119330000000     0.0314475  
C152     C      0.559440000000     0.505370000000     0.117340000000     0.0709511  
C153     C      0.878130000000     0.185160000000     0.422190000000     0.031315   
C154     C      0.826780000000     0.210810000000     0.421760000000     0.0184323  
C155     C      0.878240000000     0.185590000000     0.455670000000     0.0327094  
C156     C      0.828380000000     0.213490000000     0.455350000000     0.0700688  
C157     C      0.788510000000     0.128280000000     0.171710000000     0.0333347  
C158     C      0.856970000000     0.196180000000     0.172990000000     0.0212313  
C159     C      0.788770000000     0.126450000000     0.205210000000     0.0343421  
C160     C      0.859890000000     0.192260000000     0.206200000000     0.0740189  
C161     C      0.118730000000     0.300490000000     0.284660000000     0.0307536  
C162     C      0.165720000000     0.378310000000     0.284920000000     0.0183704  
C163     C      0.120930000000     0.300490000000     0.251000000000     0.0316622  
C164     C      0.166520000000     0.378940000000     0.251160000000     0.0694839  
C165     C      0.214640000000     0.372100000000     0.033360000000     0.0305852  
C166     C      0.178910000000     0.293850000000     0.036280000000     0.0164544  
C167     C      0.213380000000     0.369740000000     0.999820000000     0.031185   
C168     C      0.175340000000     0.291110000000     0.002510000000     0.0702694  
C169     C      0.984680000000     0.286600000000     0.096500000000     0.030922   
C170     C      0.984190000000     0.219220000000     0.088400000000     0.0178145  
C171     C      0.028110000000     0.305940000000     0.108430000000     0.0294897  
C172     C      0.027600000000     0.238260000000     0.099880000000     0.0685878  
C173     C      0.319290000000     0.435690000000     0.176420000000     0.0288294  
C174     C      0.312910000000     0.365090000000     0.180190000000     0.0179462  
C175     C      0.362060000000     0.455110000000     0.189040000000     0.0289381  
C176     C      0.356150000000     0.384340000000     0.192800000000     0.0680466  
C177     C      0.521920000000     0.978170000000     0.373770000000     0.0296446  
C178     C      0.552380000000     0.055930000000     0.372330000000     0.0171593  
C179     C      0.522260000000     0.977090000000     0.340070000000     0.0313295  
C180     C      0.555200000000     0.055490000000     0.338560000000     0.0679995  
C181     C      0.461360000000     0.971220000000     0.090120000000     0.0304104  
C182     C      0.490250000000     0.048800000000     0.088490000000     0.0168744  
C183     C      0.462800000000     0.972640000000     0.123780000000     0.0312834  
C184     C      0.494110000000     0.050810000000     0.122230000000     0.0708229  
C185     C      0.648710000000     0.117870000000     0.017940000000     0.0298553  
C186     C      0.644650000000     0.048430000000     0.023570000000     0.0175472  
C187     C      0.690690000000     0.138810000000     0.032200000000     0.028229   
C188     C      0.686680000000     0.069080000000     0.038030000000     0.0698052  
C189     C      0.215690000000     0.848650000000     0.253150000000     0.0303107  
C190     C      0.172820000000     0.883920000000     0.252710000000     0.0179996  
C191     C      0.216690000000     0.850190000000     0.286800000000     0.0310457  
C192     C      0.175370000000     0.887520000000     0.286340000000     0.0690823  
C193     C      0.155640000000     0.790870000000     0.002370000000     0.0303998  
C194     C      0.124390000000     0.837430000000     0.003610000000     0.018575   
C195     C      0.155310000000     0.789600000000     0.036010000000     0.0311564  
C196     C      0.122030000000     0.834750000000     0.037280000000     0.0684593  
C197     C      0.358880000000     0.909310000000     0.444650000000     0.0297527  
C198     C      0.361070000000     0.978140000000     0.442670000000     0.0169409  
C199     C      0.316370000000     0.888430000000     0.431420000000     0.0288677  
C200     C      0.318110000000     0.957420000000     0.429530000000     0.0689586  
C201     C      0.791460000000     0.621860000000     0.421380000000     0.0305385  
C202     C      0.815450000000     0.698480000000     0.418900000000     0.0169415  
C203     C      0.787710000000     0.622880000000     0.454920000000     0.0313651  
C204     C      0.814280000000     0.700250000000     0.452690000000     0.0708641  
C205     C      0.877650000000     0.703150000000     0.202170000000     0.0300972  
C206     C      0.848810000000     0.625650000000     0.204970000000     0.0162044  
C207     C      0.876430000000     0.700820000000     0.168510000000     0.0312472  
C208     C      0.844900000000     0.622700000000     0.171190000000     0.0701869  
C209     C      0.648600000000     0.600940000000     0.265060000000     0.0311505  
C210     C      0.651320000000     0.534990000000     0.258420000000     0.0168493  
C211     C      0.691500000000     0.621880000000     0.277820000000     0.0307454  
C212     C      0.694350000000     0.555640000000     0.271060000000     0.0691437  
C213     C      0.984710000000     0.708530000000     0.347780000000     0.0323981  
C214     C      0.979630000000     0.773600000000     0.347700000000     0.0176838  
C215     C      0.027960000000     0.732780000000     0.360020000000     0.0282717  
C216     C      0.022350000000     0.797980000000     0.360630000000     0.0675171  
C217     C      0.858080000000     0.666800000000     0.753150000000     0.47338    
C218     C      0.815000000000     0.660120000000     0.871140000000     0.473848   
C219     C      0.756880000000     0.621880000000     0.793840000000     0.479143   
C220     C      0.918010000000     0.705880000000     0.829940000000     0.474277   
C221     C      0.150120000000     0.824690000000     0.954070000000     0.479099   
C222     C      0.191060000000     0.862270000000     0.836350000000     0.481284   
C223     C      0.252280000000     0.888640000000     0.912680000000     0.478029   
C224     C      0.090380000000     0.800200000000     0.877860000000     0.47854    
C225     C      0.481960000000     0.009110000000     0.539740000000     0.47449    
C226     C      0.526940000000     0.017220000000     0.922180000000     0.473798   
C227     C      0.584090000000     0.052070000000     0.500110000000     0.47457    
C228     C      0.423810000000     0.974740000000     0.962210000000     0.474045   
C229     C      0.151250000000     0.337140000000     0.701640000000     0.480243   
C230     C      0.191480000000     0.336380000000     0.584150000000     0.476678   
C231     C      0.251870000000     0.371700000000     0.660650000000     0.473506   
C232     C      0.091350000000     0.301210000000     0.624070000000     0.478842   
C233     C      0.850750000000     0.194710000000     0.504910000000     0.488374   
C234     C      0.821790000000     0.167000000000     0.623830000000     0.48834    
C235     C      0.754180000000     0.137640000000     0.551460000000     0.479424   
C236     C      0.918870000000     0.222170000000     0.577670000000     0.475696   
C237     C      0.528320000000     0.512770000000     0.667490000000     0.480252   
C238     C      0.483770000000     0.476880000000     0.785010000000     0.476826   
C239     C      0.424330000000     0.451890000000     0.708340000000     0.477828   
C240     C      0.585730000000     0.535950000000     0.744060000000     0.475581   
C241     C      0.148920000000     0.338310000000     0.834140000000     0.47794    
C242     C      0.183740000000     0.329230000000     0.951870000000     0.481734   
C243     C      0.207460000000     0.294780000000     0.875020000000     0.483095   
C244     C      0.123550000000     0.372310000000     0.910270000000     0.477891   
C245     C      0.344390000000     0.156840000000     0.871660000000     0.47624    
C246     C      0.342330000000     0.194890000000     0.753570000000     0.480083   
C247     C      0.300480000000     0.214860000000     0.828990000000     0.478744   
C248     C      0.385960000000     0.137940000000     0.796290000000     0.482633   
C249     C      0.994230000000     0.519170000000     0.913110000000     0.478052   
C250     C      0.992970000000     0.477940000000     0.530590000000     0.480366   
C251     C      0.035290000000     0.458250000000     0.954170000000     0.480387   
C252     C      0.954690000000     0.539230000000     0.488940000000     0.477153   
C253     C      0.670110000000     0.856410000000     0.587160000000     0.475709   
C254     C      0.674310000000     0.819310000000     0.705180000000     0.476368   
C255     C      0.707530000000     0.792990000000     0.628970000000     0.477218   
C256     C      0.635690000000     0.882680000000     0.663390000000     0.476937   
C257     C      0.848950000000     0.659190000000     0.620630000000     0.478504   
C258     C      0.808470000000     0.663960000000     0.503370000000     0.477337   
C259     C      0.786800000000     0.700730000000     0.580040000000     0.480124   
C260     C      0.868590000000     0.621830000000     0.542760000000     0.482218   
C261     C      0.491250000000     0.013360000000     0.671930000000     0.478623   
C262     C      0.531830000000     0.012060000000     0.789500000000     0.477258   
C263     C      0.552130000000     0.971090000000     0.712060000000     0.480827   
C264     C      0.471830000000     0.051950000000     0.747900000000     0.477225   
C265     C      0.337720000000     0.145530000000     0.503710000000     0.4796     
C266     C      0.343610000000     0.189270000000     0.621230000000     0.476861   
C267     C      0.379340000000     0.247860000000     0.544870000000     0.477563   
C268     C      0.301840000000     0.085980000000     0.580000000000     0.480163   
C269     C      0.529950000000     0.519550000000     0.535360000000     0.477066   
C270     C      0.490110000000     0.480040000000     0.917570000000     0.480787   
C271     C      0.467700000000     0.418930000000     0.494600000000     0.482478   
C272     C      0.554040000000     0.580900000000     0.959980000000     0.480236   
C273     C      0.145240000000     0.814890000000     0.586390000000     0.482371   
C274     C      0.183000000000     0.854040000000     0.704230000000     0.478994   
C275     C      0.209420000000     0.913870000000     0.628530000000     0.477185   
C276     C      0.117960000000     0.751850000000     0.662060000000     0.476557   
C277     C      0.992000000000     0.518120000000     0.781100000000     0.478681   
C278     C      0.984680000000     0.474480000000     0.663230000000     0.476578   
C279     C      0.949380000000     0.414830000000     0.740300000000     0.477755   
C280     C      0.025980000000     0.576800000000     0.705190000000     0.47825    
C281     C      0.845400000000     0.188480000000     0.873070000000     0.486408   
C282     C      0.824180000000     0.154500000000     0.754530000000     0.491808   
C283     C      0.792340000000     0.087280000000     0.828810000000     0.483799   
C284     C      0.871420000000     0.249810000000     0.797270000000     0.483733   
C285     C      0.676820000000     0.857390000000     0.954710000000     0.479966   
C286     C      0.671320000000     0.812710000000     0.837400000000     0.479828   
C287     C      0.637780000000     0.754360000000     0.913940000000     0.477075   
C288     C      0.710790000000     0.915440000000     0.877770000000     0.47771    
C289     C      0.775470000000     0.982550000000     0.862340000000     0.0302183  
C290     C      0.705170000000     0.975520000000     0.855210000000     0.018049   
C291     C      0.795410000000     0.025140000000     0.849060000000     0.029579   
C292     C      0.724820000000     0.018160000000     0.841590000000     0.0690495  
C293     C      0.916270000000     0.298530000000     0.756280000000     0.0298143  
C294     C      0.879510000000     0.321100000000     0.793120000000     0.0216914  
C295     C      0.937670000000     0.341380000000     0.742630000000     0.0355489  
C296     C      0.898790000000     0.362940000000     0.778680000000     0.0687981  
C297     C      0.114600000000     0.683820000000     0.675930000000     0.0301648  
C298     C      0.050140000000     0.689400000000     0.679960000000     0.0182761  
C299     C      0.091360000000     0.640350000000     0.687380000000     0.0292394  
C300     C      0.026200000000     0.645350000000     0.691290000000     0.0676438  
C301     C      0.573010000000     0.687520000000     0.929140000000     0.0299801  
C302     C      0.642620000000     0.692140000000     0.933270000000     0.0179281  
C303     C      0.552640000000     0.644480000000     0.941400000000     0.0295286  
C304     C      0.622390000000     0.648620000000     0.945570000000     0.0679692  
C305     C      0.212870000000     0.981010000000     0.611870000000     0.0306205  
C306     C      0.277240000000     0.975050000000     0.609540000000     0.0181331  
C307     C      0.236220000000     0.023610000000     0.598870000000     0.0297862  
C308     C      0.301240000000     0.018170000000     0.596620000000     0.068912   
C309     C      0.378440000000     0.311600000000     0.523830000000     0.0310418  
C310     C      0.446220000000     0.313020000000     0.530960000000     0.0168883  
C311     C      0.401250000000     0.354680000000     0.511030000000     0.0310691  
C312     C      0.469340000000     0.356000000000     0.518340000000     0.0697691  
C313     C      0.712520000000     0.832910000000     0.755180000000     0.0300196  
C314     C      0.635290000000     0.783970000000     0.753310000000     0.0165759  
C315     C      0.711550000000     0.829350000000     0.788750000000     0.0308375  
C316     C      0.633750000000     0.782020000000     0.787100000000     0.0708415  
C317     C      0.633590000000     0.841180000000     0.536390000000     0.029911   
C318     C      0.710980000000     0.888830000000     0.539060000000     0.0161901  
C319     C      0.635690000000     0.842930000000     0.502770000000     0.030981   
C320     C      0.713640000000     0.888810000000     0.505270000000     0.0704692  
C321     C      0.771260000000     0.789800000000     0.612540000000     0.0298465  
C322     C      0.700950000000     0.725310000000     0.609560000000     0.0179892  
C323     C      0.790430000000     0.766470000000     0.599440000000     0.029251   
C324     C      0.719910000000     0.701400000000     0.596450000000     0.0682284  
C325     C      0.639040000000     0.948960000000     0.683600000000     0.0308202  
C326     C      0.570070000000     0.883680000000     0.676880000000     0.0169778  
C327     C      0.617410000000     0.970680000000     0.695930000000     0.0307915  
C328     C      0.548130000000     0.904970000000     0.689060000000     0.0696625  
C329     C      0.033550000000     0.543240000000     0.863800000000     0.0301881  
C330     C      0.956710000000     0.516630000000     0.864900000000     0.0184641  
C331     C      0.032250000000     0.541400000000     0.830120000000     0.0289939  
C332     C      0.956020000000     0.519040000000     0.831180000000     0.0673535  
C333     C      0.024830000000     0.483120000000     0.614870000000     0.0292783  
C334     C      0.947310000000     0.452450000000     0.612770000000     0.0173312  
C335     C      0.026770000000     0.485270000000     0.581240000000     0.0313474  
C336     C      0.948650000000     0.452330000000     0.578970000000     0.0691565  
C337     C      0.955970000000     0.603670000000     0.510280000000     0.0311543  
C338     C      0.888160000000     0.536630000000     0.505190000000     0.0155206  
C339     C      0.933860000000     0.623800000000     0.524180000000     0.0305694  
C340     C      0.865670000000     0.556310000000     0.519190000000     0.0692918  
C341     C      0.381130000000     0.170070000000     0.922210000000     0.0300043  
C342     C      0.304340000000     0.119380000000     0.918950000000     0.0167998  
C343     C      0.379260000000     0.165150000000     0.955670000000     0.0314768  
C344     C      0.301780000000     0.116390000000     0.952710000000     0.0714284  
C345     C      0.305170000000     0.182660000000     0.670090000000     0.0301957  
C346     C      0.383180000000     0.218350000000     0.670130000000     0.0181013  
C347     C      0.305250000000     0.183230000000     0.703780000000     0.0318204  
C348     C      0.383710000000     0.221760000000     0.703850000000     0.0686547  
C349     C      0.406430000000     0.050980000000     0.765770000000     0.0313846  
C350     C      0.474650000000     0.118100000000     0.766270000000     0.0158075  
C351     C      0.385500000000     0.073030000000     0.778280000000     0.0301873  
C352     C      0.454280000000     0.140360000000     0.779680000000     0.0693664  
C353     C      0.057330000000     0.370300000000     0.928080000000     0.0313787  
C354     C      0.123560000000     0.438920000000     0.923120000000     0.0167054  
C355     C      0.035530000000     0.392450000000     0.939030000000     0.0305445  
C356     C      0.102100000000     0.461440000000     0.933860000000     0.0696453  
C357     C      0.298540000000     0.278570000000     0.848300000000     0.0315999  
C358     C      0.232070000000     0.210490000000     0.842060000000     0.0172871  
C359     C      0.274640000000     0.298050000000     0.860020000000     0.0309274  
C360     C      0.207750000000     0.229570000000     0.853830000000     0.0699013  
C361     C      0.493520000000     0.447750000000     0.834320000000     0.0300704  
C362     C      0.461330000000     0.493480000000     0.834610000000     0.0182086  
C363     C      0.496720000000     0.450420000000     0.867940000000     0.0315458  
C364     C      0.462400000000     0.494600000000     0.868370000000     0.0688015  
C365     C      0.517000000000     0.543190000000     0.585770000000     0.0304651  
C366     C      0.560500000000     0.508620000000     0.583540000000     0.0168505  
C367     C      0.517850000000     0.542270000000     0.619330000000     0.031386   
C368     C      0.559440000000     0.505370000000     0.617340000000     0.0709273  
C369     C      0.878130000000     0.185160000000     0.922190000000     0.0313453  
C370     C      0.826780000000     0.210810000000     0.921760000000     0.0184043  
C371     C      0.878240000000     0.185590000000     0.955670000000     0.0327428  
C372     C      0.828380000000     0.213490000000     0.955350000000     0.0700299  
C373     C      0.788510000000     0.128280000000     0.671710000000     0.0333253  
C374     C      0.856970000000     0.196180000000     0.672990000000     0.021231   
C375     C      0.788770000000     0.126450000000     0.705210000000     0.0343518  
C376     C      0.859890000000     0.192260000000     0.706200000000     0.0740143  
C377     C      0.118730000000     0.300490000000     0.784660000000     0.0306883  
C378     C      0.165720000000     0.378310000000     0.784920000000     0.0184033  
C379     C      0.120930000000     0.300490000000     0.751000000000     0.0316871  
C380     C      0.166510000000     0.378940000000     0.751160000000     0.0694799  
C381     C      0.214640000000     0.372100000000     0.533360000000     0.0305227  
C382     C      0.178910000000     0.293860000000     0.536280000000     0.0165587  
C383     C      0.213380000000     0.369740000000     0.499820000000     0.0312333  
C384     C      0.175340000000     0.291110000000     0.502510000000     0.0701393  
C385     C      0.984680000000     0.286600000000     0.596500000000     0.0309526  
C386     C      0.984190000000     0.219220000000     0.588400000000     0.0177801  
C387     C      0.028110000000     0.305940000000     0.608430000000     0.0294746  
C388     C      0.027600000000     0.238260000000     0.599880000000     0.0685964  
C389     C      0.319290000000     0.435700000000     0.676420000000     0.0287646  
C390     C      0.312910000000     0.365090000000     0.680190000000     0.0179414  
C391     C      0.362060000000     0.455120000000     0.689040000000     0.0288994  
C392     C      0.356150000000     0.384340000000     0.692800000000     0.0680705  
C393     C      0.521920000000     0.978170000000     0.873770000000     0.0296543  
C394     C      0.552380000000     0.055930000000     0.872340000000     0.0172168  
C395     C      0.522260000000     0.977090000000     0.840070000000     0.0313483  
C396     C      0.555200000000     0.055490000000     0.838560000000     0.0679884  
C397     C      0.461360000000     0.971220000000     0.590120000000     0.0303957  
C398     C      0.490250000000     0.048800000000     0.588490000000     0.0168653  
C399     C      0.462810000000     0.972640000000     0.623790000000     0.0313101  
C400     C      0.494100000000     0.050810000000     0.622230000000     0.0708131  
C401     C      0.648710000000     0.117870000000     0.517940000000     0.0298455  
C402     C      0.644650000000     0.048430000000     0.523570000000     0.0175396  
C403     C      0.690690000000     0.138810000000     0.532200000000     0.0282227  
C404     C      0.686680000000     0.069080000000     0.538030000000     0.0697943  
C405     C      0.215690000000     0.848640000000     0.753150000000     0.0302293  
C406     C      0.172820000000     0.883920000000     0.752710000000     0.0179781  
C407     C      0.216690000000     0.850190000000     0.786800000000     0.0311019  
C408     C      0.175370000000     0.887510000000     0.786340000000     0.069113   
C409     C      0.155650000000     0.790870000000     0.502370000000     0.03021    
C410     C      0.124390000000     0.837440000000     0.503610000000     0.0183388  
C411     C      0.155310000000     0.789600000000     0.536010000000     0.0312439  
C412     C      0.122030000000     0.834750000000     0.537280000000     0.0685389  
C413     C      0.358880000000     0.909310000000     0.944660000000     0.0296537  
C414     C      0.361080000000     0.978140000000     0.942670000000     0.0170901  
C415     C      0.316370000000     0.888430000000     0.931420000000     0.0289208  
C416     C      0.318110000000     0.957420000000     0.929530000000     0.0688701  
C417     C      0.791450000000     0.621860000000     0.921380000000     0.0305708  
C418     C      0.815450000000     0.698490000000     0.918900000000     0.0168597  
C419     C      0.787710000000     0.622880000000     0.954920000000     0.0312915  
C420     C      0.814280000000     0.700260000000     0.952690000000     0.0709049  
C421     C      0.877650000000     0.703150000000     0.702170000000     0.0301745  
C422     C      0.848810000000     0.625650000000     0.704970000000     0.0161579  
C423     C      0.876430000000     0.700820000000     0.668520000000     0.0311893  
C424     C      0.844900000000     0.622700000000     0.671190000000     0.0701988  
C425     C      0.648600000000     0.600940000000     0.765060000000     0.0312279  
C426     C      0.651320000000     0.535000000000     0.758410000000     0.0168737  
C427     C      0.691500000000     0.621880000000     0.777830000000     0.030712   
C428     C      0.694350000000     0.555640000000     0.771060000000     0.0691326  
C429     C      0.984710000000     0.708530000000     0.847780000000     0.0323475  
C430     C      0.979630000000     0.773600000000     0.847700000000     0.0176644  
C431     C      0.027960000000     0.732790000000     0.860020000000     0.0283653  
C432     C      0.022350000000     0.797980000000     0.860630000000     0.0675228  
H1       H      0.831320000000     0.043250000000     0.347660000000     0.0330294  
H2       H      0.796890000000     0.969890000000     0.369980000000     0.0329577  
H3       H      0.669260000000     0.956410000000     0.356730000000     0.0414707  
H4       H      0.677870000000     0.055870000000     0.349800000000     0.037796   
H5       H      0.958450000000     0.347550000000     0.221570000000     0.0299184  
H6       H      0.914120000000     0.269800000000     0.243070000000     0.0429577  
H7       H      0.857320000000     0.314000000000     0.313490000000     0.0354841  
H8       H      0.916360000000     0.422800000000     0.321240000000     0.0380697  
H9       H      0.109690000000     0.622760000000     0.189480000000     0.0331688  
H10      H      0.149430000000     0.697360000000     0.170320000000     0.0327745  
H11      H      0.033000000000     0.708180000000     0.177640000000     0.041363   
H12      H      0.943430000000     0.606500000000     0.176040000000     0.0380165  
H13      H      0.516820000000     0.627350000000     0.443660000000     0.0340436  
H14      H      0.551980000000     0.701290000000     0.423120000000     0.0330971  
H15      H      0.678450000000     0.710430000000     0.430760000000     0.0403257  
H16      H      0.670970000000     0.640740000000     0.488960000000     0.0347728  
H17      H      0.217910000000     0.041040000000     0.095510000000     0.034001   
H18      H      0.178040000000     0.967870000000     0.117280000000     0.0335921  
H19      H      0.294320000000     0.956410000000     0.113110000000     0.0414617  
H20      H      0.359010000000     0.024450000000     0.055040000000     0.0377244  
H21      H      0.381750000000     0.369510000000     0.003310000000     0.0358119  
H22      H      0.342610000000     0.295280000000     0.025540000000     0.0362298  
H23      H      0.465360000000     0.297940000000     0.039050000000     0.0398452  
H24      H      0.543490000000     0.373770000000     0.492190000000     0.0328601  
H25      H      0.742590000000     0.848480000000     0.301660000000     0.030895   
H26      H      0.744290000000     0.853760000000     0.243620000000     0.0325856  
H27      H      0.604560000000     0.765060000000     0.240010000000     0.0381589  
H28      H      0.578680000000     0.704140000000     0.308780000000     0.0334596  
H29      H      0.604900000000     0.823770000000     0.989580000000     0.0309166  
H30      H      0.601370000000     0.821480000000     0.047640000000     0.0320155  
H31      H      0.741400000000     0.907770000000     0.052700000000     0.0378585  
H32      H      0.787860000000     0.900060000000     0.983840000000     0.0360329  
H33      H      0.826140000000     0.784730000000     0.096330000000     0.033391   
H34      H      0.792940000000     0.824640000000     0.118330000000     0.0326805  
H35      H      0.665250000000     0.708160000000     0.112860000000     0.0412038  
H36      H      0.668810000000     0.644780000000     0.053980000000     0.0348905  
H37      H      0.637850000000     0.005100000000     0.203310000000     0.0353336  
H38      H      0.674910000000     0.967510000000     0.181890000000     0.034686   
H39      H      0.549980000000     0.849330000000     0.169150000000     0.0396336  
H40      H      0.473440000000     0.850640000000     0.215620000000     0.0329947  
H41      H      0.063010000000     0.550630000000     0.317580000000     0.0329739  
H42      H      0.064790000000     0.553010000000     0.375820000000     0.0286316  
H43      H      0.926360000000     0.506690000000     0.378310000000     0.0350774  
H44      H      0.907600000000     0.550660000000     0.310700000000     0.0299039  
H45      H      0.059050000000     0.499090000000     0.069830000000     0.0307347  
H46      H      0.055810000000     0.496070000000     0.127990000000     0.0325383  
H47      H      0.915470000000     0.440140000000     0.124610000000     0.0385256  
H48      H      0.890960000000     0.469710000000     0.054790000000     0.0365706  
H49      H      0.953770000000     0.658380000000     0.031320000000     0.0364702  
H50      H      0.991620000000     0.623580000000     0.007360000000     0.0358887  
H51      H      0.868900000000     0.502070000000     0.997770000000     0.0391299  
H52      H      0.795470000000     0.499790000000     0.049640000000     0.0333991  
H53      H      0.409780000000     0.184440000000     0.469150000000     0.0304134  
H54      H      0.413040000000     0.192040000000     0.411200000000     0.0326952  
H55      H      0.274140000000     0.100300000000     0.405080000000     0.0383833  
H56      H      0.247260000000     0.037600000000     0.473010000000     0.0351601  
H57      H      0.273470000000     0.168190000000     0.216050000000     0.0312334  
H58      H      0.273430000000     0.166660000000     0.157780000000     0.031526   
H59      H      0.414540000000     0.232060000000     0.157370000000     0.0374379  
H60      H      0.450730000000     0.292330000000     0.226350000000     0.0298675  
H61      H      0.350050000000     0.053240000000     0.282330000000     0.036864   
H62      H      0.386260000000     0.015650000000     0.260890000000     0.035709   
H63      H      0.510160000000     0.136920000000     0.262020000000     0.0387701  
H64      H      0.494540000000     0.222520000000     0.261970000000     0.0345888  
H65      H      0.000730000000     0.372310000000     0.445230000000     0.0366666  
H66      H      0.038350000000     0.334330000000     0.426120000000     0.0356004  
H67      H      0.158310000000     0.458570000000     0.416540000000     0.0392782  
H68      H      0.128970000000     0.534610000000     0.902600000000     0.0315127  
H69      H      0.293440000000     0.332840000000     0.366880000000     0.0363178  
H70      H      0.334300000000     0.299160000000     0.346610000000     0.036356   
H71      H      0.214020000000     0.175730000000     0.334950000000     0.0397465  
H72      H      0.136130000000     0.172790000000     0.382710000000     0.0337154  
H73      H      0.511410000000     0.433180000000     0.380080000000     0.0309617  
H74      H      0.506750000000     0.429420000000     0.321850000000     0.0316539  
H75      H      0.447890000000     0.511590000000     0.322010000000     0.0379089  
H76      H      0.399500000000     0.502230000000     0.394460000000     0.0309364  
H77      H      0.500090000000     0.555760000000     0.132250000000     0.0309903  
H78      H      0.499340000000     0.557900000000     0.074320000000     0.0317392  
H79      H      0.577970000000     0.495320000000     0.070020000000     0.0381458  
H80      H      0.633030000000     0.518520000000     0.141420000000     0.0331381  
H81      H      0.898720000000     0.174910000000     0.468190000000     0.0300173  
H82      H      0.897970000000     0.173410000000     0.410090000000     0.0319155  
H83      H      0.805540000000     0.220220000000     0.408880000000     0.0383351  
H84      H      0.751820000000     0.192300000000     0.478260000000     0.0352839  
H85      H      0.760970000000     0.098990000000     0.217430000000     0.0270436  
H86      H      0.760600000000     0.102460000000     0.158470000000     0.0264531  
H87      H      0.884070000000     0.223960000000     0.160420000000     0.0345114  
H88      H      0.938550000000     0.218330000000     0.232710000000     0.0420787  
H89      H      0.103000000000     0.268770000000     0.238620000000     0.0315163  
H90      H      0.100010000000     0.268750000000     0.296890000000     0.0321762  
H91      H      0.184440000000     0.409620000000     0.297740000000     0.0382231  
H92      H      0.242790000000     0.438300000000     0.229760000000     0.035597   
H93      H      0.227250000000     0.400900000000     0.986640000000     0.0316773  
H94      H      0.229920000000     0.404740000000     0.044520000000     0.0320124  
H95      H      0.165170000000     0.263190000000     0.050070000000     0.0367335  
H96      H      0.107750000000     0.219360000000     0.981910000000     0.0350567  
H97      H      0.043820000000     0.340310000000     0.116320000000     0.035513   
H98      H      0.968950000000     0.306800000000     0.095670000000     0.0361906  
H99      H      0.968310000000     0.185010000000     0.080040000000     0.0398142  
H100     H      0.073240000000     0.213090000000     0.066200000000     0.0320977  
H101     H      0.379690000000     0.491020000000     0.191680000000     0.0329062  
H102     H      0.306310000000     0.457480000000     0.170510000000     0.031967   
H103     H      0.294110000000     0.329200000000     0.177330000000     0.0416005  
H104     H      0.394980000000     0.339960000000     0.178420000000     0.0372054  
H105     H      0.509280000000     0.944980000000     0.328370000000     0.030462   
H106     H      0.508150000000     0.946780000000     0.386590000000     0.0320317  
H107     H      0.563810000000     0.087580000000     0.384440000000     0.0379475  
H108     H      0.541020000000     0.114960000000     0.313490000000     0.0368486  
H109     H      0.451960000000     0.941610000000     0.136620000000     0.0319971  
H110     H      0.448850000000     0.939170000000     0.078430000000     0.0323581  
H111     H      0.500990000000     0.079540000000     0.075280000000     0.0377501  
H112     H      0.475470000000     0.107120000000     0.147470000000     0.0346894  
H113     H      0.707490000000     0.174740000000     0.034550000000     0.0325042  
H114     H      0.635030000000     0.138580000000     0.510660000000     0.0330032  
H115     H      0.626920000000     0.012450000000     0.021260000000     0.0417559  
H116     H      0.727290000000     0.024770000000     0.030390000000     0.0370489  
H117     H      0.234080000000     0.835910000000     0.299260000000     0.0310325  
H118     H      0.231670000000     0.832690000000     0.241040000000     0.0315383  
H119     H      0.154810000000     0.897200000000     0.239810000000     0.0382245  
H120     H      0.103430000000     0.879800000000     0.309200000000     0.0379335  
H121     H      0.168380000000     0.770620000000     0.047800000000     0.0306097  
H122     H      0.169600000000     0.773440000000     0.989580000000     0.031483   
H123     H      0.112460000000     0.857160000000     0.991420000000     0.0381544  
H124     H      0.056940000000     0.840400000000     0.061400000000     0.0304494  
H125     H      0.300490000000     0.852750000000     0.427820000000     0.0330956  
H126     H      0.373490000000     0.888810000000     0.950060000000     0.032622   
H127     H      0.378090000000     0.013860000000     0.446470000000     0.0417153  
H128     H      0.309390000000     0.008080000000     0.388320000000     0.0374679  
H129     H      0.777210000000     0.592190000000     0.468150000000     0.0316048  
H130     H      0.782680000000     0.590320000000     0.410070000000     0.0334587  
H131     H      0.825980000000     0.728960000000     0.405390000000     0.0380519  
H132     H      0.787470000000     0.752580000000     0.473370000000     0.0329538  
H133     H      0.887420000000     0.731560000000     0.155240000000     0.0305395  
H134     H      0.890130000000     0.735490000000     0.213390000000     0.0321598  
H135     H      0.837910000000     0.595260000000     0.218670000000     0.0368281  
H136     H      0.781290000000     0.548060000000     0.150570000000     0.0364199  
H137     H      0.705540000000     0.656300000000     0.285270000000     0.0365116  
H138     H      0.631840000000     0.620110000000     0.263220000000     0.0354085  
H139     H      0.636670000000     0.500630000000     0.250620000000     0.0398654  
H140     H      0.742880000000     0.530250000000     0.241540000000     0.032375   
H141     H      0.045470000000     0.714730000000     0.364260000000     0.036677   
H142     H      0.971090000000     0.673280000000     0.343270000000     0.0354872  
H143     H      0.961450000000     0.790990000000     0.343330000000     0.039396   
H144     H      0.029170000000     0.859330000000     0.399090000000     0.0334753  
H145     H      0.831320000000     0.043250000000     0.847660000000     0.033035   
H146     H      0.796890000000     0.969890000000     0.869980000000     0.0329337  
H147     H      0.669260000000     0.956410000000     0.856730000000     0.0415053  
H148     H      0.677870000000     0.055870000000     0.849800000000     0.0377964  
H149     H      0.958450000000     0.347550000000     0.721570000000     0.0298848  
H150     H      0.914120000000     0.269800000000     0.743070000000     0.0429722  
H151     H      0.857320000000     0.314000000000     0.813490000000     0.0354855  
H152     H      0.916360000000     0.422800000000     0.821240000000     0.038073   
H153     H      0.109690000000     0.622760000000     0.689480000000     0.0331735  
H154     H      0.149430000000     0.697350000000     0.670320000000     0.0327589  
H155     H      0.033000000000     0.708180000000     0.677640000000     0.0413595  
H156     H      0.943430000000     0.606500000000     0.676040000000     0.0380134  
H157     H      0.516820000000     0.627350000000     0.943660000000     0.0340339  
H158     H      0.551980000000     0.701300000000     0.923120000000     0.0331156  
H159     H      0.678450000000     0.710430000000     0.930760000000     0.0403015  
H160     H      0.670970000000     0.640740000000     0.988960000000     0.0347608  
H161     H      0.217910000000     0.041040000000     0.595510000000     0.0339891  
H162     H      0.178040000000     0.967870000000     0.617280000000     0.0335955  
H163     H      0.294320000000     0.956400000000     0.613110000000     0.0414677  
H164     H      0.359010000000     0.024450000000     0.555040000000     0.0377154  
H165     H      0.381750000000     0.369500000000     0.503310000000     0.0357889  
H166     H      0.342610000000     0.295280000000     0.525540000000     0.0362219  
H167     H      0.465360000000     0.297940000000     0.539050000000     0.0398335  
H168     H      0.543490000000     0.373770000000     0.992190000000     0.0328249  
H169     H      0.742590000000     0.848480000000     0.801660000000     0.0308861  
H170     H      0.744280000000     0.853760000000     0.743620000000     0.0325899  
H171     H      0.604550000000     0.765060000000     0.740010000000     0.0381426  
H172     H      0.578680000000     0.704140000000     0.808780000000     0.0334501  
H173     H      0.604890000000     0.823770000000     0.489580000000     0.0309685  
H174     H      0.601370000000     0.821480000000     0.547640000000     0.0319857  
H175     H      0.741400000000     0.907770000000     0.552700000000     0.0378342  
H176     H      0.787860000000     0.900060000000     0.483840000000     0.0360391  
H177     H      0.826140000000     0.784720000000     0.596330000000     0.0333933  
H178     H      0.792930000000     0.824640000000     0.618330000000     0.0326939  
H179     H      0.665250000000     0.708160000000     0.612860000000     0.0412228  
H180     H      0.668810000000     0.644780000000     0.553980000000     0.0348759  
H181     H      0.637850000000     0.005100000000     0.703310000000     0.0353129  
H182     H      0.674910000000     0.967510000000     0.681890000000     0.0346996  
H183     H      0.549980000000     0.849340000000     0.669150000000     0.039635   
H184     H      0.473440000000     0.850630000000     0.715620000000     0.0329943  
H185     H      0.063010000000     0.550640000000     0.817580000000     0.0329549  
H186     H      0.064790000000     0.553010000000     0.875820000000     0.0286582  
H187     H      0.926360000000     0.506690000000     0.878310000000     0.0350666  
H188     H      0.907600000000     0.550660000000     0.810700000000     0.0299077  
H189     H      0.059050000000     0.499090000000     0.569830000000     0.0307313  
H190     H      0.055810000000     0.496070000000     0.627990000000     0.0325356  
H191     H      0.915470000000     0.440140000000     0.624610000000     0.0385298  
H192     H      0.890950000000     0.469700000000     0.554790000000     0.036567   
H193     H      0.953770000000     0.658380000000     0.531320000000     0.0364653  
H194     H      0.991620000000     0.623580000000     0.507360000000     0.0358766  
H195     H      0.868900000000     0.502060000000     0.497770000000     0.0391712  
H196     H      0.795470000000     0.499800000000     0.549650000000     0.0333935  
H197     H      0.409780000000     0.184440000000     0.969150000000     0.0304004  
H198     H      0.413040000000     0.192040000000     0.911210000000     0.0326884  
H199     H      0.274140000000     0.100300000000     0.905080000000     0.0383927  
H200     H      0.247260000000     0.037600000000     0.973010000000     0.0351487  
H201     H      0.273470000000     0.168190000000     0.716050000000     0.0312251  
H202     H      0.273430000000     0.166660000000     0.657780000000     0.0315406  
H203     H      0.414540000000     0.232060000000     0.657370000000     0.0374235  
H204     H      0.450730000000     0.292330000000     0.726350000000     0.0298643  
H205     H      0.350050000000     0.053240000000     0.782340000000     0.0368657  
H206     H      0.386260000000     0.015650000000     0.760890000000     0.0357085  
H207     H      0.510160000000     0.136920000000     0.762020000000     0.0387677  
H208     H      0.494540000000     0.222520000000     0.761970000000     0.0345874  
H209     H      0.000730000000     0.372300000000     0.945230000000     0.0366429  
H210     H      0.038350000000     0.334340000000     0.926130000000     0.0356035  
H211     H      0.158310000000     0.458570000000     0.916540000000     0.0393103  
H212     H      0.128970000000     0.534610000000     0.402600000000     0.0315078  
H213     H      0.293440000000     0.332840000000     0.866880000000     0.0363161  
H214     H      0.334300000000     0.299160000000     0.846610000000     0.0363581  
H215     H      0.214020000000     0.175730000000     0.834950000000     0.0397428  
H216     H      0.136130000000     0.172790000000     0.882710000000     0.0337137  
H217     H      0.511410000000     0.433180000000     0.880080000000     0.0309575  
H218     H      0.506750000000     0.429420000000     0.821850000000     0.0316577  
H219     H      0.447890000000     0.511590000000     0.822010000000     0.0378969  
H220     H      0.399500000000     0.502230000000     0.894460000000     0.0309301  
H221     H      0.500090000000     0.555760000000     0.632250000000     0.0309991  
H222     H      0.499340000000     0.557910000000     0.574320000000     0.0316997  
H223     H      0.577970000000     0.495310000000     0.570020000000     0.0381302  
H224     H      0.633030000000     0.518520000000     0.641420000000     0.0331374  
H225     H      0.898720000000     0.174910000000     0.968190000000     0.0299916  
H226     H      0.897970000000     0.173410000000     0.910100000000     0.0318981  
H227     H      0.805540000000     0.220220000000     0.908880000000     0.0383407  
H228     H      0.751820000000     0.192290000000     0.978260000000     0.035272   
H229     H      0.760960000000     0.098990000000     0.717430000000     0.0270422  
H230     H      0.760600000000     0.102470000000     0.658470000000     0.0264556  
H231     H      0.884070000000     0.223960000000     0.660420000000     0.0345113  
H232     H      0.938560000000     0.218330000000     0.732710000000     0.0420648  
H233     H      0.103000000000     0.268770000000     0.738620000000     0.0315057  
H234     H      0.100010000000     0.268760000000     0.796890000000     0.032202   
H235     H      0.184440000000     0.409620000000     0.797740000000     0.0382153  
H236     H      0.242790000000     0.438300000000     0.729760000000     0.0356023  
H237     H      0.227250000000     0.400890000000     0.486640000000     0.0316818  
H238     H      0.229920000000     0.404740000000     0.544520000000     0.0320179  
H239     H      0.165170000000     0.263190000000     0.550070000000     0.0366952  
H240     H      0.107750000000     0.219360000000     0.481910000000     0.0350539  
H241     H      0.043820000000     0.340310000000     0.616320000000     0.0355141  
H242     H      0.968950000000     0.306800000000     0.595670000000     0.0361786  
H243     H      0.968310000000     0.185010000000     0.580040000000     0.0398147  
H244     H      0.073240000000     0.213100000000     0.566200000000     0.0320928  
H245     H      0.379690000000     0.491020000000     0.691680000000     0.032909   
H246     H      0.306310000000     0.457480000000     0.670510000000     0.0319905  
H247     H      0.294110000000     0.329200000000     0.677330000000     0.0416062  
H248     H      0.394980000000     0.339960000000     0.678420000000     0.0372039  
H249     H      0.509280000000     0.944970000000     0.828360000000     0.0304514  
H250     H      0.508160000000     0.946780000000     0.886590000000     0.0320247  
H251     H      0.563810000000     0.087580000000     0.884440000000     0.0379265  
H252     H      0.541020000000     0.114960000000     0.813490000000     0.0368516  
H253     H      0.451960000000     0.941610000000     0.636620000000     0.0319814  
H254     H      0.448850000000     0.939170000000     0.578430000000     0.0323599  
H255     H      0.500990000000     0.079540000000     0.575280000000     0.0377479  
H256     H      0.475470000000     0.107120000000     0.647470000000     0.0346868  
H257     H      0.707490000000     0.174740000000     0.534550000000     0.032496   
H258     H      0.635030000000     0.138580000000     0.010660000000     0.033021   
H259     H      0.626920000000     0.012450000000     0.521260000000     0.0417428  
H260     H      0.727290000000     0.024770000000     0.530390000000     0.0370238  
H261     H      0.234080000000     0.835910000000     0.799260000000     0.0310207  
H262     H      0.231670000000     0.832690000000     0.741040000000     0.0315572  
H263     H      0.154810000000     0.897200000000     0.739810000000     0.0382247  
H264     H      0.103430000000     0.879800000000     0.809200000000     0.0379328  
H265     H      0.168380000000     0.770620000000     0.547800000000     0.030581   
H266     H      0.169600000000     0.773440000000     0.489570000000     0.0315754  
H267     H      0.112460000000     0.857150000000     0.491420000000     0.0382526  
H268     H      0.056940000000     0.840400000000     0.561390000000     0.0304505  
H269     H      0.300490000000     0.852750000000     0.927810000000     0.0330871  
H270     H      0.373500000000     0.888810000000     0.450060000000     0.032609   
H271     H      0.378090000000     0.013860000000     0.946470000000     0.041675   
H272     H      0.309390000000     0.008080000000     0.888320000000     0.037465   
H273     H      0.777210000000     0.592190000000     0.968150000000     0.031605   
H274     H      0.782680000000     0.590320000000     0.910070000000     0.0334439  
H275     H      0.825980000000     0.728960000000     0.905390000000     0.0380725  
H276     H      0.787470000000     0.752580000000     0.973370000000     0.03295    
H277     H      0.887420000000     0.731560000000     0.655240000000     0.0305606  
H278     H      0.890120000000     0.735490000000     0.713390000000     0.0321334  
H279     H      0.837910000000     0.595260000000     0.718670000000     0.0368399  
H280     H      0.781290000000     0.548060000000     0.650570000000     0.036413   
H281     H      0.705540000000     0.656300000000     0.785270000000     0.0365142  
H282     H      0.631840000000     0.620110000000     0.763220000000     0.0353828  
H283     H      0.636670000000     0.500630000000     0.750620000000     0.039851   
H284     H      0.742880000000     0.530250000000     0.741540000000     0.0323792  
H285     H      0.045470000000     0.714730000000     0.864260000000     0.03664    
H286     H      0.971090000000     0.673280000000     0.843270000000     0.0354928  
H287     H      0.961450000000     0.790980000000     0.843330000000     0.0394017  
H288     H      0.029170000000     0.859330000000     0.899090000000     0.0334679  
N1       N      0.730400000000     0.957860000000     0.365590000000    -0.187686   
N2       N      0.770580000000     0.043700000000     0.339220000000    -0.194459   
N3       N      0.890160000000     0.290330000000     0.282890000000    -0.189361   
N4       N      0.928910000000     0.373380000000     0.253940000000    -0.193997   
N5       N      0.094160000000     0.708470000000     0.172340000000    -0.187471   
N6       N      0.047100000000     0.620490000000     0.194890000000    -0.193141   
N7       N      0.617960000000     0.711420000000     0.425110000000    -0.187942   
N8       N      0.576770000000     0.624380000000     0.449360000000    -0.1938     
N9       N      0.233250000000     0.956630000000     0.117100000000    -0.187575   
N10      N      0.280490000000     0.042850000000     0.091440000000    -0.193649   
N11      N      0.401000000000     0.290720000000     0.033460000000    -0.187571   
N12      N      0.446550000000     0.376770000000     0.007610000000    -0.194555   
N13      N      0.674170000000     0.811490000000     0.237630000000    -0.187148   
N14      N      0.671970000000     0.806580000000     0.304770000000    -0.195301   
N15      N      0.671390000000     0.862940000000     0.054450000000    -0.187156   
N16      N      0.675790000000     0.864200000000     0.987230000000    -0.195214   
N17      N      0.726540000000     0.769330000000     0.117480000000    -0.187886   
N18      N      0.765290000000     0.722190000000     0.091580000000    -0.193971   
N19      N      0.615290000000     0.905320000000     0.174400000000    -0.187148   
N20      N      0.572100000000     0.948740000000     0.199350000000    -0.193951   
N21      N      0.995120000000     0.527530000000     0.380870000000    -0.188671   
N22      N      0.993130000000     0.527050000000     0.313640000000    -0.193053   
N23      N      0.985390000000     0.468880000000     0.130540000000    -0.18705    
N24      N      0.989010000000     0.470550000000     0.063250000000    -0.194422   
N25      N      0.933100000000     0.560020000000     0.001050000000    -0.188005   
N26      N      0.888860000000     0.600340000000     0.029150000000    -0.194401   
N27      N      0.343440000000     0.148240000000     0.404020000000    -0.187187   
N28      N      0.339320000000     0.140870000000     0.471000000000    -0.195386   
N29      N      0.344000000000     0.197640000000     0.153540000000    -0.187786   
N30      N      0.344240000000     0.201500000000     0.220780000000    -0.194254   
N31      N      0.450900000000     0.073610000000     0.259550000000    -0.18827    
N32      N      0.408920000000     0.117730000000     0.285200000000    -0.19412    
N33      N      0.101420000000     0.393580000000     0.420410000000    -0.18775    
N34      N      0.057790000000     0.437870000000     0.442580000000    -0.194122   
N35      N      0.277240000000     0.234750000000     0.339520000000    -0.187859   
N36      N      0.229330000000     0.273820000000     0.363250000000    -0.194269   
N37      N      0.478190000000     0.471420000000     0.317730000000    -0.187714   
N38      N      0.482030000000     0.474410000000     0.385000000000    -0.194697   
N39      N      0.536890000000     0.524880000000     0.067970000000    -0.187812   
N40      N      0.536280000000     0.520690000000     0.135070000000    -0.195093   
N41      N      0.850710000000     0.195650000000     0.405490000000    -0.190395   
N42      N      0.853090000000     0.199130000000     0.472220000000    -0.197802   
N43      N      0.821940000000     0.163790000000     0.156230000000    -0.191588   
N44      N      0.824760000000     0.157470000000     0.222050000000    -0.199751   
N45      N      0.143260000000     0.339090000000     0.301490000000    -0.187785   
N46      N      0.145510000000     0.339370000000     0.234220000000    -0.194628   
N47      N      0.196120000000     0.334150000000     0.051510000000    -0.187788   
N48      N      0.191280000000     0.329450000000     0.984390000000    -0.195233   
N49      N      0.962480000000     0.242940000000     0.087190000000    -0.187457   
N50      N      0.049300000000     0.281640000000     0.111090000000    -0.193701   
N51      N      0.294610000000     0.390710000000     0.172040000000    -0.186929   
N52      N      0.381160000000     0.430010000000     0.197080000000    -0.192739   
N53      N      0.534690000000     0.017280000000     0.389710000000    -0.186757   
N54      N      0.538020000000     0.015400000000     0.322350000000    -0.194034   
N55      N      0.476640000000     0.009510000000     0.072520000000    -0.186925   
N56      N      0.481990000000     0.012590000000     0.139690000000    -0.194488   
N57      N      0.625900000000     0.072760000000     0.013310000000    -0.186725   
N58      N      0.710610000000     0.114960000000     0.041330000000    -0.19381    
N59      N      0.191390000000     0.863000000000     0.236420000000    -0.188426   
N60      N      0.195400000000     0.868190000000     0.303530000000    -0.195142   
N61      N      0.142460000000     0.816800000000     0.986420000000    -0.188636   
N62      N      0.139510000000     0.812190000000     0.053560000000    -0.195246   
N63      N      0.381310000000     0.954140000000     0.450230000000    -0.186892   
N64      N      0.295310000000     0.911880000000     0.424100000000    -0.193122   
N65      N      0.806630000000     0.659950000000     0.403540000000    -0.186078   
N66      N      0.802000000000     0.662460000000     0.470660000000    -0.19489    
N67      N      0.862660000000     0.665410000000     0.220350000000    -0.186369   
N68      N      0.857450000000     0.660490000000     0.153090000000    -0.194521   
N69      N      0.628430000000     0.557410000000     0.255590000000    -0.187063   
N70      N      0.714510000000     0.599470000000     0.281310000000    -0.193433   
N71      N      0.960720000000     0.729070000000     0.341460000000    -0.186885   
N72      N      0.047220000000     0.777540000000     0.366540000000    -0.192749   
N73      N      0.730410000000     0.957860000000     0.865590000000    -0.187702   
N74      N      0.770580000000     0.043700000000     0.839220000000    -0.194461   
N75      N      0.890160000000     0.290330000000     0.782890000000    -0.189378   
N76      N      0.928910000000     0.373380000000     0.753940000000    -0.194036   
N77      N      0.094160000000     0.708470000000     0.672340000000    -0.187478   
N78      N      0.047100000000     0.620490000000     0.694890000000    -0.193063   
N79      N      0.617960000000     0.711410000000     0.925110000000    -0.187932   
N80      N      0.576770000000     0.624380000000     0.949360000000    -0.193721   
N81      N      0.233250000000     0.956630000000     0.617100000000    -0.187529   
N82      N      0.280490000000     0.042850000000     0.591440000000    -0.193657   
N83      N      0.401000000000     0.290720000000     0.533460000000    -0.187577   
N84      N      0.446550000000     0.376770000000     0.507610000000    -0.194603   
N85      N      0.674170000000     0.811490000000     0.737630000000    -0.187156   
N86      N      0.671970000000     0.806580000000     0.804770000000    -0.195291   
N87      N      0.671390000000     0.862940000000     0.554450000000    -0.187187   
N88      N      0.675790000000     0.864200000000     0.487230000000    -0.195157   
N89      N      0.726540000000     0.769330000000     0.617480000000    -0.187845   
N90      N      0.765290000000     0.722190000000     0.591580000000    -0.194022   
N91      N      0.615290000000     0.905320000000     0.674400000000    -0.1871     
N92      N      0.572100000000     0.948740000000     0.699350000000    -0.193927   
N93      N      0.995120000000     0.527530000000     0.880870000000    -0.188633   
N94      N      0.993130000000     0.527050000000     0.813640000000    -0.19312    
N95      N      0.985390000000     0.468880000000     0.630540000000    -0.187046   
N96      N      0.989010000000     0.470540000000     0.563250000000    -0.194408   
N97      N      0.933100000000     0.560010000000     0.501050000000    -0.188119   
N98      N      0.888860000000     0.600340000000     0.529150000000    -0.194382   
N99      N      0.343440000000     0.148240000000     0.904020000000    -0.187169   
N100     N      0.339320000000     0.140870000000     0.971000000000    -0.195413   
N101     N      0.344010000000     0.197640000000     0.653540000000    -0.18779    
N102     N      0.344240000000     0.201500000000     0.720780000000    -0.194263   
N103     N      0.450900000000     0.073610000000     0.759560000000    -0.188242   
N104     N      0.408920000000     0.117730000000     0.785200000000    -0.194113   
N105     N      0.101420000000     0.393580000000     0.920410000000    -0.187664   
N106     N      0.057790000000     0.437870000000     0.942580000000    -0.194142   
N107     N      0.277240000000     0.234750000000     0.839520000000    -0.187858   
N108     N      0.229330000000     0.273820000000     0.863250000000    -0.194287   
N109     N      0.478190000000     0.471420000000     0.817730000000    -0.187721   
N110     N      0.482030000000     0.474400000000     0.885000000000    -0.194657   
N111     N      0.536890000000     0.524880000000     0.567970000000    -0.187846   
N112     N      0.536280000000     0.520690000000     0.635070000000    -0.195039   
N113     N      0.850710000000     0.195640000000     0.905490000000    -0.190403   
N114     N      0.853090000000     0.199120000000     0.972210000000    -0.197747   
N115     N      0.821940000000     0.163790000000     0.656230000000    -0.191584   
N116     N      0.824760000000     0.157470000000     0.722050000000    -0.199753   
N117     N      0.143260000000     0.339100000000     0.801500000000    -0.187854   
N118     N      0.145510000000     0.339370000000     0.734220000000    -0.194643   
N119     N      0.196120000000     0.334150000000     0.551510000000    -0.187801   
N120     N      0.191280000000     0.329450000000     0.484390000000    -0.195204   
N121     N      0.962490000000     0.242950000000     0.587190000000    -0.187402   
N122     N      0.049300000000     0.281640000000     0.611090000000    -0.193701   
N123     N      0.294610000000     0.390710000000     0.672040000000    -0.186854   
N124     N      0.381160000000     0.430010000000     0.697080000000    -0.192758   
N125     N      0.534690000000     0.017280000000     0.889710000000    -0.186837   
N126     N      0.538020000000     0.015400000000     0.822350000000    -0.194062   
N127     N      0.476640000000     0.009510000000     0.572520000000    -0.186858   
N128     N      0.481990000000     0.012590000000     0.639690000000    -0.194494   
N129     N      0.625900000000     0.072760000000     0.513310000000    -0.18672    
N130     N      0.710610000000     0.114960000000     0.541330000000    -0.193808   
N131     N      0.191390000000     0.863000000000     0.736430000000    -0.188321   
N132     N      0.195400000000     0.868190000000     0.803530000000    -0.195163   
N133     N      0.142460000000     0.816800000000     0.486420000000    -0.188495   
N134     N      0.139510000000     0.812190000000     0.553560000000    -0.195293   
N135     N      0.381310000000     0.954150000000     0.950230000000    -0.186875   
N136     N      0.295300000000     0.911870000000     0.924100000000    -0.193131   
N137     N      0.806630000000     0.659950000000     0.903540000000    -0.186064   
N138     N      0.802000000000     0.662470000000     0.970660000000    -0.194897   
N139     N      0.862660000000     0.665420000000     0.720350000000    -0.186406   
N140     N      0.857450000000     0.660490000000     0.653090000000    -0.194506   
N141     N      0.628430000000     0.557420000000     0.755590000000    -0.187098   
N142     N      0.714510000000     0.599470000000     0.781310000000    -0.193436   
N143     N      0.960720000000     0.729070000000     0.841460000000    -0.186924   
N144     N      0.047220000000     0.777540000000     0.866540000000    -0.192796   
O1       O      0.852770000000     0.633980000000     0.270810000000    -0.550375   
O2       O      0.819620000000     0.628550000000     0.358950000000    -0.548664   
O3       O      0.776550000000     0.600550000000     0.302310000000    -0.552367   
O4       O      0.897830000000     0.663160000000     0.327560000000    -0.547195   
O5       O      0.897800000000     0.727150000000     0.322510000000    -0.55823    
O6       O      0.777210000000     0.664560000000     0.296460000000    -0.553013   
O7       O      0.820770000000     0.693100000000     0.353480000000    -0.552795   
O8       O      0.855140000000     0.699170000000     0.265670000000    -0.552008   
O9       O      0.158720000000     0.799230000000     0.436750000000    -0.554841   
O10      O      0.190570000000     0.828110000000     0.348860000000    -0.554654   
O11      O      0.234990000000     0.847150000000     0.405310000000    -0.550944   
O12      O      0.113320000000     0.780420000000     0.380230000000    -0.54522    
O13      O      0.108260000000     0.841420000000     0.385330000000    -0.561073   
O14      O      0.228670000000     0.907460000000     0.410670000000    -0.555606   
O15      O      0.184250000000     0.888570000000     0.354090000000    -0.557648   
O16      O      0.151380000000     0.859280000000     0.441660000000    -0.559492   
O17      O      0.483730000000     0.976370000000     0.026810000000    -0.554349   
O18      O      0.519340000000     0.983310000000     0.439420000000    -0.554404   
O19      O      0.562170000000     0.009380000000     0.997080000000    -0.550654   
O20      O      0.441900000000     0.951400000000     0.469500000000    -0.554862   
O21      O      0.445870000000     0.017380000000     0.465200000000    -0.55144    
O22      O      0.566260000000     0.075340000000     0.992060000000    -0.555202   
O23      O      0.524310000000     0.049750000000     0.434780000000    -0.549713   
O24      O      0.489330000000     0.043120000000     0.022630000000    -0.550951   
O25      O      0.151200000000     0.302770000000     0.189940000000    -0.553957   
O26      O      0.182340000000     0.302580000000     0.102060000000    -0.554855   
O27      O      0.227820000000     0.329090000000     0.158590000000    -0.552939   
O28      O      0.107300000000     0.276860000000     0.133510000000    -0.557139   
O29      O      0.115010000000     0.343890000000     0.126280000000    -0.548898   
O30      O      0.235600000000     0.396560000000     0.152930000000    -0.553955   
O31      O      0.192440000000     0.370990000000     0.096180000000    -0.556323   
O32      O      0.159120000000     0.370110000000     0.183320000000    -0.55452    
O33      O      0.851430000000     0.161360000000     0.017850000000    -0.563168   
O34      O      0.823310000000     0.137130000000     0.106530000000    -0.561223   
O35      O      0.776740000000     0.117730000000     0.051770000000    -0.563945   
O36      O      0.898430000000     0.180030000000     0.072510000000    -0.5658     
O37      O      0.898070000000     0.244070000000     0.075180000000    -0.54559    
O38      O      0.773260000000     0.179540000000     0.058340000000    -0.54838    
O39      O      0.826320000000     0.202820000000     0.111430000000    -0.565926   
O40      O      0.845560000000     0.222330000000     0.022190000000    -0.563361   
O41      O      0.524360000000     0.477020000000     0.179960000000    -0.548906   
O42      O      0.491190000000     0.450130000000     0.268160000000    -0.551762   
O43      O      0.446410000000     0.431460000000     0.211280000000    -0.549633   
O44      O      0.567370000000     0.494580000000     0.236490000000    -0.557198   
O45      O      0.563790000000     0.556690000000     0.241760000000    -0.551062   
O46      O      0.443190000000     0.493700000000     0.214880000000    -0.556526   
O47      O      0.485430000000     0.511220000000     0.271850000000    -0.557765   
O48      O      0.520710000000     0.539130000000     0.184570000000    -0.559186   
O49      O      0.183290000000     0.370650000000     0.347370000000    -0.561013   
O50      O      0.210130000000     0.363170000000     0.434790000000    -0.561748   
O51      O      0.228170000000     0.337450000000     0.377970000000    -0.556425   
O52      O      0.165180000000     0.395310000000     0.403830000000    -0.561447   
O53      O      0.102950000000     0.329670000000     0.407660000000    -0.553129   
O54      O      0.166380000000     0.272030000000     0.382640000000    -0.557714   
O55      O      0.148380000000     0.297310000000     0.439220000000    -0.550472   
O56      O      0.122120000000     0.304020000000     0.350870000000    -0.551259   
O57      O      0.376510000000     0.192980000000     0.359980000000    -0.553182   
O58      O      0.373910000000     0.222370000000     0.271940000000    -0.552153   
O59      O      0.343100000000     0.237100000000     0.327970000000    -0.554456   
O60      O      0.406670000000     0.179150000000     0.304150000000    -0.557665   
O61      O      0.343300000000     0.115670000000     0.297780000000    -0.5561     
O62      O      0.279430000000     0.173530000000     0.321050000000    -0.560174   
O63      O      0.309870000000     0.159200000000     0.265450000000    -0.555186   
O64      O      0.311980000000     0.130100000000     0.353520000000    -0.556033   
O65      O      0.027750000000     0.544270000000     0.431030000000    -0.552579   
O66      O      0.026480000000     0.513510000000     0.019450000000    -0.552099   
O67      O      0.056970000000     0.498600000000     0.463940000000    -0.55999    
O68      O      0.997230000000     0.560430000000     0.986950000000    -0.555386   
O69      O      0.932280000000     0.497910000000     0.981000000000    -0.559071   
O70      O      0.992540000000     0.437070000000     0.454960000000    -0.550274   
O71      O      0.962030000000     0.451120000000     0.011590000000    -0.555426   
O72      O      0.960810000000     0.484160000000     0.424690000000    -0.5581     
O73      O      0.703780000000     0.882320000000     0.104640000000    -0.553353   
O74      O      0.707570000000     0.853650000000     0.192600000000    -0.553371   
O75      O      0.732060000000     0.834410000000     0.136100000000    -0.554105   
O76      O      0.678260000000     0.902060000000     0.161420000000    -0.547581   
O77      O      0.611750000000     0.841390000000     0.155950000000    -0.563754   
O78      O      0.665140000000     0.774030000000     0.131480000000    -0.558963   
O79      O      0.640160000000     0.793920000000     0.187910000000    -0.556122   
O80      O      0.636630000000     0.822250000000     0.099750000000    -0.555628   
O81      O      0.874570000000     0.692580000000     0.102770000000    -0.554409   
O82      O      0.843370000000     0.696920000000     0.015550000000    -0.550004   
O83      O      0.828140000000     0.723590000000     0.072570000000    -0.557127   
O84      O      0.889710000000     0.664600000000     0.045280000000    -0.551281   
O85      O      0.828230000000     0.599430000000     0.052060000000    -0.561444   
O86      O      0.766530000000     0.658130000000     0.077950000000    -0.555282   
O87      O      0.782800000000     0.630200000000     0.020980000000    -0.552007   
O88      O      0.813190000000     0.626710000000     0.108870000000    -0.549404   
O89      O      0.527040000000     0.045970000000     0.183460000000    -0.549072   
O90      O      0.558770000000     0.043650000000     0.270880000000    -0.550502   
O91      O      0.573590000000     0.013910000000     0.213850000000    -0.549323   
O92      O      0.513030000000     0.074400000000     0.240080000000    -0.556461   
O93      O      0.450660000000     0.009260000000     0.245960000000    -0.557074   
O94      O      0.511750000000     0.949270000000     0.221540000000    -0.560829   
O95      O      0.496800000000     0.978550000000     0.277800000000    -0.552776   
O96      O      0.466110000000     0.979760000000     0.189810000000    -0.553709   
O97      O      0.305050000000     0.147790000000     0.016070000000    -0.549009   
O98      O      0.309800000000     0.181450000000     0.103930000000    -0.552737   
O99      O      0.336740000000     0.225960000000     0.046930000000    -0.549116   
O100     O      0.278940000000     0.104570000000     0.072710000000    -0.556473   
O101     O      0.344290000000     0.108360000000     0.077870000000    -0.55456    
O102     O      0.402060000000     0.229320000000     0.052540000000    -0.564238   
O103     O      0.376040000000     0.186560000000     0.108870000000    -0.556104   
O104     O      0.371310000000     0.153030000000     0.021150000000    -0.557877   
O105     O      0.495820000000     0.519290000000     0.023310000000    -0.55862    
O106     O      0.464300000000     0.486420000000     0.436080000000    -0.557167   
O107     O      0.447610000000     0.441560000000     0.992750000000    -0.551877   
O108     O      0.512610000000     0.562990000000     0.467070000000    -0.557277   
O109     O      0.573270000000     0.557620000000     0.461550000000    -0.554425   
O110     O      0.507950000000     0.436190000000     0.985100000000    -0.562026   
O111     O      0.524960000000     0.481130000000     0.429150000000    -0.551894   
O112     O      0.555130000000     0.511210000000     0.017490000000    -0.553426   
O113     O      0.119290000000     0.821610000000     0.104430000000    -0.561185   
O114     O      0.149090000000     0.853760000000     0.191750000000    -0.56224    
O115     O      0.168190000000     0.897460000000     0.135590000000    -0.557761   
O116     O      0.099610000000     0.776140000000     0.160670000000    -0.553063   
O117     O      0.159010000000     0.768330000000     0.154540000000    -0.558773   
O118     O      0.227900000000     0.889860000000     0.131040000000    -0.554211   
O119     O      0.207430000000     0.843800000000     0.187130000000    -0.553494   
O120     O      0.178780000000     0.813990000000     0.098640000000    -0.553452   
O121     O      0.958720000000     0.511440000000     0.263700000000    -0.551209   
O122     O      0.951530000000     0.475340000000     0.176230000000    -0.552959   
O123     O      0.926460000000     0.433550000000     0.233930000000    -0.554386   
O124     O      0.983530000000     0.553910000000     0.206600000000    -0.552704   
O125     O      0.049110000000     0.558420000000     0.212480000000    -0.553665   
O126     O      0.991670000000     0.435880000000     0.236140000000    -0.544176   
O127     O      0.018650000000     0.482390000000     0.180280000000    -0.556075   
O128     O      0.023430000000     0.513740000000     0.268530000000    -0.552936   
O129     O      0.810490000000     0.184360000000     0.359210000000    -0.562697   
O130     O      0.792780000000     0.155260000000     0.270320000000    -0.560653   
O131     O      0.771040000000     0.108310000000     0.325720000000    -0.564018   
O132     O      0.830120000000     0.230240000000     0.304270000000    -0.565274   
O133     O      0.894280000000     0.230260000000     0.301030000000    -0.556888   
O134     O      0.834570000000     0.107730000000     0.323910000000    -0.557514   
O135     O      0.857580000000     0.156370000000     0.268790000000    -0.572201   
O136     O      0.874160000000     0.183500000000     0.357130000000    -0.571055   
O137     O      0.642820000000     0.848540000000     0.437290000000    -0.558179   
O138     O      0.638280000000     0.814060000000     0.349920000000    -0.554294   
O139     O      0.613680000000     0.771570000000     0.406680000000    -0.56012    
O140     O      0.668270000000     0.892160000000     0.380130000000    -0.555431   
O141     O      0.734950000000     0.898580000000     0.385700000000    -0.557216   
O142     O      0.680270000000     0.777590000000     0.411530000000    -0.553627   
O143     O      0.705670000000     0.821940000000     0.354570000000    -0.553598   
O144     O      0.709770000000     0.855510000000     0.442450000000    -0.55131    
O145     O      0.852770000000     0.633980000000     0.770810000000    -0.550394   
O146     O      0.819620000000     0.628550000000     0.858950000000    -0.548675   
O147     O      0.776550000000     0.600550000000     0.802300000000    -0.552367   
O148     O      0.897830000000     0.663160000000     0.827560000000    -0.547173   
O149     O      0.897800000000     0.727150000000     0.822510000000    -0.558145   
O150     O      0.777210000000     0.664560000000     0.796460000000    -0.553032   
O151     O      0.820770000000     0.693100000000     0.853480000000    -0.552811   
O152     O      0.855130000000     0.699160000000     0.765670000000    -0.552118   
O153     O      0.158720000000     0.799230000000     0.936750000000    -0.554986   
O154     O      0.190570000000     0.828110000000     0.848860000000    -0.554524   
O155     O      0.234990000000     0.847150000000     0.905310000000    -0.550953   
O156     O      0.113330000000     0.780430000000     0.880230000000    -0.545457   
O157     O      0.108260000000     0.841410000000     0.885330000000    -0.561334   
O158     O      0.228670000000     0.907470000000     0.910670000000    -0.555556   
O159     O      0.184250000000     0.888570000000     0.854100000000    -0.557677   
O160     O      0.151380000000     0.859280000000     0.941660000000    -0.559623   
O161     O      0.483730000000     0.976370000000     0.526810000000    -0.554487   
O162     O      0.519340000000     0.983310000000     0.939420000000    -0.554277   
O163     O      0.562170000000     0.009380000000     0.497080000000    -0.550616   
O164     O      0.441900000000     0.951400000000     0.969500000000    -0.55497    
O165     O      0.445870000000     0.017380000000     0.965200000000    -0.551326   
O166     O      0.566260000000     0.075340000000     0.492060000000    -0.555183   
O167     O      0.524310000000     0.049750000000     0.934780000000    -0.5496     
O168     O      0.489330000000     0.043120000000     0.522630000000    -0.551134   
O169     O      0.151200000000     0.302770000000     0.689940000000    -0.553887   
O170     O      0.182340000000     0.302580000000     0.602060000000    -0.554765   
O171     O      0.227820000000     0.329090000000     0.658590000000    -0.552773   
O172     O      0.107300000000     0.276860000000     0.633510000000    -0.557124   
O173     O      0.115010000000     0.343890000000     0.626280000000    -0.54891    
O174     O      0.235600000000     0.396570000000     0.652930000000    -0.553899   
O175     O      0.192440000000     0.370990000000     0.596180000000    -0.556434   
O176     O      0.159120000000     0.370110000000     0.683320000000    -0.554549   
O177     O      0.851430000000     0.161360000000     0.517850000000    -0.56325    
O178     O      0.823310000000     0.137130000000     0.606530000000    -0.561226   
O179     O      0.776740000000     0.117730000000     0.551770000000    -0.563956   
O180     O      0.898430000000     0.180030000000     0.572510000000    -0.565791   
O181     O      0.898070000000     0.244070000000     0.575180000000    -0.545533   
O182     O      0.773260000000     0.179540000000     0.558340000000    -0.548344   
O183     O      0.826320000000     0.202820000000     0.611430000000    -0.565869   
O184     O      0.845560000000     0.222330000000     0.522180000000    -0.563274   
O185     O      0.524360000000     0.477010000000     0.679960000000    -0.548757   
O186     O      0.491190000000     0.450130000000     0.768160000000    -0.551758   
O187     O      0.446400000000     0.431460000000     0.711280000000    -0.549568   
O188     O      0.567370000000     0.494580000000     0.736490000000    -0.557195   
O189     O      0.563790000000     0.556690000000     0.741760000000    -0.55111    
O190     O      0.443190000000     0.493700000000     0.714880000000    -0.556712   
O191     O      0.485430000000     0.511220000000     0.771850000000    -0.557796   
O192     O      0.520710000000     0.539130000000     0.684570000000    -0.559184   
O193     O      0.183290000000     0.370650000000     0.847370000000    -0.56106    
O194     O      0.210130000000     0.363170000000     0.934790000000    -0.561758   
O195     O      0.228170000000     0.337440000000     0.877970000000    -0.556432   
O196     O      0.165180000000     0.395310000000     0.903830000000    -0.561432   
O197     O      0.102950000000     0.329670000000     0.907660000000    -0.553202   
O198     O      0.166380000000     0.272030000000     0.882640000000    -0.557739   
O199     O      0.148380000000     0.297310000000     0.939230000000    -0.550349   
O200     O      0.122120000000     0.304020000000     0.850870000000    -0.551181   
O201     O      0.376510000000     0.192980000000     0.859980000000    -0.553151   
O202     O      0.373910000000     0.222370000000     0.771940000000    -0.552228   
O203     O      0.343100000000     0.237100000000     0.827980000000    -0.554439   
O204     O      0.406670000000     0.179150000000     0.804150000000    -0.557663   
O205     O      0.343300000000     0.115670000000     0.797780000000    -0.556007   
O206     O      0.279430000000     0.173530000000     0.821050000000    -0.560246   
O207     O      0.309870000000     0.159200000000     0.765440000000    -0.555255   
O208     O      0.311980000000     0.130100000000     0.853520000000    -0.555822   
O209     O      0.027750000000     0.544270000000     0.931030000000    -0.552566   
O210     O      0.026480000000     0.513510000000     0.519460000000    -0.552016   
O211     O      0.056970000000     0.498600000000     0.963940000000    -0.559973   
O212     O      0.997230000000     0.560420000000     0.486950000000    -0.555559   
O213     O      0.932280000000     0.497920000000     0.481000000000    -0.558933   
O214     O      0.992540000000     0.437070000000     0.954960000000    -0.550202   
O215     O      0.962030000000     0.451120000000     0.511590000000    -0.555449   
O216     O      0.960810000000     0.484150000000     0.924690000000    -0.558136   
O217     O      0.703770000000     0.882320000000     0.604640000000    -0.553364   
O218     O      0.707570000000     0.853650000000     0.692600000000    -0.553383   
O219     O      0.732060000000     0.834410000000     0.636090000000    -0.554039   
O220     O      0.678260000000     0.902060000000     0.661420000000    -0.54769    
O221     O      0.611750000000     0.841390000000     0.655950000000    -0.563981   
O222     O      0.665130000000     0.774030000000     0.631480000000    -0.558923   
O223     O      0.640160000000     0.793920000000     0.687910000000    -0.556219   
O224     O      0.636630000000     0.822240000000     0.599760000000    -0.555839   
O225     O      0.874570000000     0.692580000000     0.602770000000    -0.554401   
O226     O      0.843370000000     0.696920000000     0.515550000000    -0.550017   
O227     O      0.828140000000     0.723590000000     0.572570000000    -0.557029   
O228     O      0.889710000000     0.664600000000     0.545280000000    -0.551279   
O229     O      0.828230000000     0.599430000000     0.552060000000    -0.561428   
O230     O      0.766530000000     0.658130000000     0.577960000000    -0.555209   
O231     O      0.782800000000     0.630200000000     0.520980000000    -0.552016   
O232     O      0.813190000000     0.626710000000     0.608870000000    -0.549378   
O233     O      0.527040000000     0.045970000000     0.683460000000    -0.549074   
O234     O      0.558770000000     0.043650000000     0.770880000000    -0.550533   
O235     O      0.573590000000     0.013910000000     0.713850000000    -0.549344   
O236     O      0.513030000000     0.074400000000     0.740080000000    -0.556447   
O237     O      0.450660000000     0.009260000000     0.745960000000    -0.557064   
O238     O      0.511750000000     0.949270000000     0.721540000000    -0.560955   
O239     O      0.496800000000     0.978560000000     0.777800000000    -0.55289    
O240     O      0.466110000000     0.979760000000     0.689810000000    -0.553726   
O241     O      0.305050000000     0.147790000000     0.516070000000    -0.549014   
O242     O      0.309800000000     0.181450000000     0.603930000000    -0.552742   
O243     O      0.336740000000     0.225960000000     0.546930000000    -0.54912    
O244     O      0.278940000000     0.104570000000     0.572710000000    -0.556477   
O245     O      0.344290000000     0.108360000000     0.577870000000    -0.554561   
O246     O      0.402060000000     0.229320000000     0.552540000000    -0.564241   
O247     O      0.376040000000     0.186560000000     0.608870000000    -0.556101   
O248     O      0.371310000000     0.153030000000     0.521150000000    -0.557882   
O249     O      0.495820000000     0.519290000000     0.523310000000    -0.558643   
O250     O      0.464300000000     0.486420000000     0.936090000000    -0.557291   
O251     O      0.447610000000     0.441560000000     0.492750000000    -0.551594   
O252     O      0.512600000000     0.562990000000     0.967080000000    -0.557106   
O253     O      0.573270000000     0.557620000000     0.961550000000    -0.554339   
O254     O      0.507950000000     0.436190000000     0.485100000000    -0.562026   
O255     O      0.524960000000     0.481120000000     0.929150000000    -0.551733   
O256     O      0.555130000000     0.511210000000     0.517490000000    -0.553483   
O257     O      0.119290000000     0.821600000000     0.604440000000    -0.56136    
O258     O      0.149090000000     0.853760000000     0.691750000000    -0.562256   
O259     O      0.168190000000     0.897460000000     0.635590000000    -0.557747   
O260     O      0.099610000000     0.776140000000     0.660670000000    -0.553079   
O261     O      0.159010000000     0.768330000000     0.654540000000    -0.558749   
O262     O      0.227910000000     0.889860000000     0.631040000000    -0.554037   
O263     O      0.207430000000     0.843800000000     0.687130000000    -0.55345    
O264     O      0.178780000000     0.813990000000     0.598640000000    -0.55344    
O265     O      0.958730000000     0.511440000000     0.763700000000    -0.551401   
O266     O      0.951530000000     0.475340000000     0.676230000000    -0.553053   
O267     O      0.926460000000     0.433550000000     0.733930000000    -0.554524   
O268     O      0.983530000000     0.553910000000     0.706600000000    -0.552744   
O269     O      0.049110000000     0.558420000000     0.712480000000    -0.553667   
O270     O      0.991670000000     0.435880000000     0.736140000000    -0.544218   
O271     O      0.018650000000     0.482390000000     0.680280000000    -0.55611    
O272     O      0.023430000000     0.513740000000     0.768530000000    -0.55297    
O273     O      0.810490000000     0.184360000000     0.859210000000    -0.562697   
O274     O      0.792780000000     0.155260000000     0.770320000000    -0.560657   
O275     O      0.771040000000     0.108310000000     0.825720000000    -0.564018   
O276     O      0.830120000000     0.230240000000     0.804270000000    -0.565236   
O277     O      0.894280000000     0.230260000000     0.801030000000    -0.556861   
O278     O      0.834570000000     0.107730000000     0.823910000000    -0.557514   
O279     O      0.857580000000     0.156370000000     0.768790000000    -0.572204   
O280     O      0.874160000000     0.183500000000     0.857130000000    -0.571051   
O281     O      0.642820000000     0.848550000000     0.937290000000    -0.558089   
O282     O      0.638280000000     0.814060000000     0.849920000000    -0.554317   
O283     O      0.613680000000     0.771570000000     0.906690000000    -0.560016   
O284     O      0.668270000000     0.892160000000     0.880130000000    -0.555474   
O285     O      0.734950000000     0.898590000000     0.885700000000    -0.557225   
O286     O      0.680270000000     0.777590000000     0.911530000000    -0.553617   
O287     O      0.705670000000     0.821940000000     0.854570000000    -0.553639   
O288     O      0.709770000000     0.855510000000     0.942450000000    -0.551293   
S1       S      0.687630000000     0.034470000000     0.326170000000    -0.0299314  
S2       S      0.887090000000     0.402160000000     0.296450000000    -0.0356102  
S3       S      0.970360000000     0.626120000000     0.202190000000    -0.0286822  
S4       S      0.658670000000     0.629300000000     0.457440000000    -0.0301065  
S5       S      0.357060000000     0.036520000000     0.086220000000    -0.0316449  
S6       S      0.527910000000     0.381860000000     0.020250000000    -0.0402674  
S7       S      0.582310000000     0.745110000000     0.305290000000    -0.0433212  
S8       S      0.766050000000     0.923490000000     0.987560000000    -0.0460241  
S9       S      0.682300000000     0.645740000000     0.085180000000    -0.0319732  
S10      S      0.489460000000     0.873620000000     0.187310000000    -0.0425808  
S11      S      0.905980000000     0.510540000000     0.313760000000    -0.0406561  
S12      S      0.897660000000     0.434290000000     0.058810000000    -0.042815   
S13      S      0.807230000000     0.522200000000     0.020840000000    -0.0418848  
S14      S      0.250160000000     0.078320000000     0.470080000000    -0.04323    
S15      S      0.436470000000     0.247970000000     0.222410000000    -0.0420168  
S16      S      0.490260000000     0.197300000000     0.288600000000    -0.0393118  
S17      S      0.134060000000     0.520280000000     0.932270000000    -0.0414145  
S18      S      0.149420000000     0.194370000000     0.353660000000    -0.0409918  
S19      S      0.443550000000     0.528030000000     0.386990000000    -0.0414358  
S20      S      0.591000000000     0.484180000000     0.135510000000    -0.0424603  
S21      S      0.792630000000     0.229320000000     0.973970000000    -0.0415423  
S22      S      0.909650000000     0.233140000000     0.225680000000    -0.0630226  
S23      S      0.200610000000     0.431380000000     0.232910000000    -0.0432302  
S24      S      0.152740000000     0.237720000000     0.984980000000    -0.0448365  
S25      S      0.052920000000     0.205130000000     0.095730000000    -0.0408916  
S26      S      0.374220000000     0.346760000000     0.204060000000    -0.0297913  
S27      S      0.575470000000     0.107310000000     0.318860000000    -0.043166   
S28      S      0.511710000000     0.102820000000     0.140850000000    -0.0412745  
S29      S      0.704220000000     0.032860000000     0.053640000000    -0.0317519  
S30      S      0.146680000000     0.912050000000     0.304360000000    -0.0422891  
S31      S      0.101690000000     0.866500000000     0.056550000000    -0.0396275  
S32      S      0.297470000000     0.993270000000     0.419360000000    -0.0337193  
S33      S      0.825990000000     0.751220000000     0.470570000000    -0.0449825  
S34      S      0.826550000000     0.570030000000     0.153450000000    -0.0481133  
S35      S      0.720820000000     0.523360000000     0.270240000000    -0.0393511  
S36      S      0.040550000000     0.854810000000     0.368250000000    -0.0426636  
S37      S      0.687630000000     0.034470000000     0.826170000000    -0.0299436  
S38      S      0.887100000000     0.402160000000     0.796450000000    -0.0356272  
S39      S      0.970360000000     0.626120000000     0.702190000000    -0.0286623  
S40      S      0.658670000000     0.629300000000     0.957440000000    -0.0301096  
S41      S      0.357060000000     0.036520000000     0.586220000000    -0.0316502  
S42      S      0.527910000000     0.381860000000     0.520250000000    -0.0403284  
S43      S      0.582310000000     0.745110000000     0.805290000000    -0.0433196  
S44      S      0.766050000000     0.923490000000     0.487550000000    -0.0459372  
S45      S      0.682300000000     0.645740000000     0.585180000000    -0.0319939  
S46      S      0.489460000000     0.873610000000     0.687310000000    -0.0425957  
S47      S      0.905980000000     0.510540000000     0.813770000000    -0.0406942  
S48      S      0.897660000000     0.434290000000     0.558810000000    -0.0428293  
S49      S      0.807230000000     0.522200000000     0.520840000000    -0.0418862  
S50      S      0.250160000000     0.078320000000     0.970090000000    -0.0432488  
S51      S      0.436470000000     0.247970000000     0.722410000000    -0.0420138  
S52      S      0.490260000000     0.197300000000     0.788600000000    -0.039311   
S53      S      0.134060000000     0.520280000000     0.432270000000    -0.041388   
S54      S      0.149420000000     0.194370000000     0.853660000000    -0.040989   
S55      S      0.443550000000     0.528030000000     0.886990000000    -0.0414389  
S56      S      0.591000000000     0.484180000000     0.635510000000    -0.0424496  
S57      S      0.792630000000     0.229320000000     0.473970000000    -0.0415072  
S58      S      0.909650000000     0.233140000000     0.725680000000    -0.0630125  
S59      S      0.200610000000     0.431380000000     0.732910000000    -0.0432264  
S60      S      0.152740000000     0.237720000000     0.484980000000    -0.0447612  
S61      S      0.052920000000     0.205130000000     0.595730000000    -0.0409042  
S62      S      0.374220000000     0.346760000000     0.704060000000    -0.0297978  
S63      S      0.575470000000     0.107310000000     0.818860000000    -0.0431621  
S64      S      0.511710000000     0.102820000000     0.640850000000    -0.0412766  
S65      S      0.704220000000     0.032870000000     0.553650000000    -0.0317288  
S66      S      0.146680000000     0.912050000000     0.804360000000    -0.042311   
S67      S      0.101690000000     0.866510000000     0.556550000000    -0.0396911  
S68      S      0.297470000000     0.993260000000     0.919360000000    -0.033683   
S69      S      0.825990000000     0.751220000000     0.970570000000    -0.0450271  
S70      S      0.826560000000     0.570030000000     0.653450000000    -0.0481051  
S71      S      0.720820000000     0.523360000000     0.770240000000    -0.0393416  
S72      S      0.040550000000     0.854810000000     0.868250000000    -0.0426807  
V1       V      0.836830000000     0.629090000000     0.315200000000     1.38279    
V2       V      0.837730000000     0.698500000000     0.309320000000     1.39553    
V3       V      0.174620000000     0.811250000000     0.392560000000     1.37505    
V4       V      0.168050000000     0.876600000000     0.398180000000     1.41782    
V5       V      0.501730000000     0.977570000000     0.983380000000     1.39269    
V6       V      0.506440000000     0.048940000000     0.478410000000     1.38546    
V7       V      0.166950000000     0.300210000000     0.146350000000     1.39896    
V8       V      0.175780000000     0.373040000000     0.139440000000     1.39062    
V9       V      0.837620000000     0.146610000000     0.061990000000     1.42496    
V10      V      0.835630000000     0.214740000000     0.066970000000     1.39805    
V11      V      0.507290000000     0.460730000000     0.223740000000     1.38958    
V12      V      0.503180000000     0.527650000000     0.228440000000     1.39809    
V13      V      0.199160000000     0.369190000000     0.390840000000     1.41181    
V14      V      0.132410000000     0.298180000000     0.395330000000     1.38758    
V15      V      0.377490000000     0.210500000000     0.316320000000     1.39831    
V16      V      0.308650000000     0.142080000000     0.309180000000     1.40134    
V17      V      0.029680000000     0.531710000000     0.475650000000     1.3948     
V18      V      0.959440000000     0.464980000000     0.967710000000     1.40419    
V19      V      0.708040000000     0.870620000000     0.148930000000     1.38283    
V20      V      0.635840000000     0.805520000000     0.143580000000     1.40844    
V21      V      0.861480000000     0.696990000000     0.058830000000     1.39082    
V22      V      0.795180000000     0.626120000000     0.065300000000     1.39945    
V23      V      0.545720000000     0.046970000000     0.226750000000     1.39073    
V24      V      0.478930000000     0.976630000000     0.234090000000     1.40163    
V25      V      0.305030000000     0.164860000000     0.059690000000     1.38618    
V26      V      0.375900000000     0.169290000000     0.065360000000     1.40986    
V27      V      0.477600000000     0.502670000000     0.980030000000     1.39838    
V28      V      0.542760000000     0.496380000000     0.472980000000     1.40091    
V29      V      0.131600000000     0.837350000000     0.148410000000     1.4102     
V30      V      0.195650000000     0.828650000000     0.142630000000     1.39061    
V31      V      0.952460000000     0.493340000000     0.219820000000     1.40175    
V32      V      0.023280000000     0.497620000000     0.224580000000     1.38223    
V33      V      0.798420000000     0.169310000000     0.315010000000     1.42201    
V34      V      0.867670000000     0.169320000000     0.312850000000     1.42111    
V35      V      0.638200000000     0.831460000000     0.393300000000     1.40656    
V36      V      0.710270000000     0.838530000000     0.398820000000     1.38784    
V37      V      0.836830000000     0.629090000000     0.815200000000     1.38274    
V38      V      0.837730000000     0.698500000000     0.809320000000     1.3956     
V39      V      0.174620000000     0.811250000000     0.892560000000     1.37523    
V40      V      0.168050000000     0.876600000000     0.898190000000     1.41809    
V41      V      0.501730000000     0.977570000000     0.483380000000     1.39288    
V42      V      0.506440000000     0.048930000000     0.978410000000     1.38528    
V43      V      0.166950000000     0.300210000000     0.646350000000     1.39883    
V44      V      0.175780000000     0.373040000000     0.639440000000     1.39069    
V45      V      0.837620000000     0.146610000000     0.561990000000     1.42502    
V46      V      0.835630000000     0.214740000000     0.566970000000     1.39773    
V47      V      0.507290000000     0.460730000000     0.723740000000     1.38953    
V48      V      0.503180000000     0.527660000000     0.728440000000     1.39825    
V49      V      0.199160000000     0.369190000000     0.890840000000     1.41169    
V50      V      0.132410000000     0.298180000000     0.895330000000     1.38735    
V51      V      0.377490000000     0.210500000000     0.816320000000     1.3984     
V52      V      0.308640000000     0.142080000000     0.809170000000     1.40111    
V53      V      0.029680000000     0.531710000000     0.975650000000     1.3948     
V54      V      0.959450000000     0.464980000000     0.467710000000     1.40394    
V55      V      0.708040000000     0.870620000000     0.648930000000     1.38272    
V56      V      0.635830000000     0.805520000000     0.643580000000     1.40906    
V57      V      0.861480000000     0.696990000000     0.558830000000     1.3908     
V58      V      0.795180000000     0.626120000000     0.565300000000     1.39937    
V59      V      0.545720000000     0.046970000000     0.726750000000     1.39071    
V60      V      0.478930000000     0.976630000000     0.734090000000     1.40172    
V61      V      0.305030000000     0.164860000000     0.559690000000     1.38617    
V62      V      0.375900000000     0.169290000000     0.565360000000     1.40985    
V63      V      0.477610000000     0.502680000000     0.480030000000     1.39805    
V64      V      0.542760000000     0.496380000000     0.972980000000     1.40073    
V65      V      0.131600000000     0.837350000000     0.648410000000     1.41046    
V66      V      0.195650000000     0.828650000000     0.642630000000     1.39049    
V67      V      0.952460000000     0.493340000000     0.719820000000     1.40196    
V68      V      0.023280000000     0.497610000000     0.724580000000     1.38225    
V69      V      0.798420000000     0.169310000000     0.815010000000     1.422      
V70      V      0.867670000000     0.169320000000     0.812850000000     1.42111    
V71      V      0.638200000000     0.831460000000     0.893300000000     1.4066     
V72      V      0.710280000000     0.838530000000     0.898820000000     1.38776    


