data_structure

_audit_creation_method RASPA-1.0
_audit_creation_date 2023-6-5
_audit_author_name 'Poobodin Mano'

_cell_length_a    34.788
_cell_length_b    34.7693
_cell_length_c    41.4243
_cell_angle_alpha 89.9814
_cell_angle_beta  90.0187
_cell_angle_gamma 119.979
_cell_volume      43401.3

_symmetry_cell_setting          triclinic
_symmetry_space_group_name_Hall 'P 1'
_symmetry_space_group_name_H-M  'P 1'
_symmetry_Int_Tables_number     1

_symmetry_equiv_pos_as_xyz 'x,y,z'

loop_
_atom_site_label
_atom_site_type_symbol
_atom_site_fract_x
_atom_site_fract_y
_atom_site_fract_z
_atom_site_charge
C1       C      0.861850000000     0.671100000000     0.256730000000     0.476597   
C2       C      0.820740000000     0.666840000000     0.374630000000     0.475532   
C3       C      0.760610000000     0.630070000000     0.298550000000     0.487584   
C4       C      0.922610000000     0.708180000000     0.332630000000     0.474195   
C5       C      0.198260000000     0.855890000000     0.337650000000     0.493177   
C6       C      0.155150000000     0.819990000000     0.455320000000     0.476885   
C7       C      0.095740000000     0.796170000000     0.378630000000     0.485355   
C8       C      0.257150000000     0.879640000000     0.414160000000     0.476763   
C9       C      0.531320000000     0.009360000000     0.421530000000     0.477914   
C10      C      0.488240000000     0.002650000000     0.039220000000     0.475607   
C11      C      0.428930000000     0.965640000000     0.462600000000     0.488045   
C12      C      0.590290000000     0.046020000000     0.998380000000     0.486995   
C13      C      0.155510000000     0.342490000000     0.206530000000     0.489958   
C14      C      0.196620000000     0.344720000000     0.088820000000     0.477315   
C15      C      0.256450000000     0.381900000000     0.165360000000     0.488675   
C16      C      0.095020000000     0.305280000000     0.130310000000     0.475708   
C17      C      0.863230000000     0.194150000000     0.006400000000     0.477393   
C18      C      0.820750000000     0.156630000000     0.124070000000     0.48799    
C19      C      0.761580000000     0.132460000000     0.047590000000     0.475519   
C20      C      0.922840000000     0.219160000000     0.082910000000     0.488309   
C21      C      0.529460000000     0.524640000000     0.173330000000     0.476486   
C22      C      0.486590000000     0.487380000000     0.290960000000     0.488484   
C23      C      0.427690000000     0.465050000000     0.214550000000     0.475337   
C24      C      0.589000000000     0.547010000000     0.249900000000     0.47544    
C25      C      0.159660000000     0.345510000000     0.338880000000     0.477181   
C26      C      0.196060000000     0.338920000000     0.456600000000     0.488373   
C27      C      0.219260000000     0.302760000000     0.380190000000     0.474845   
C28      C      0.136420000000     0.381390000000     0.415320000000     0.475967   
C29      C      0.345260000000     0.154490000000     0.373040000000     0.47558    
C30      C      0.338790000000     0.190930000000     0.255330000000     0.475959   
C31      C      0.303070000000     0.214560000000     0.332140000000     0.48611    
C32      C      0.380560000000     0.130740000000     0.296460000000     0.475808   
C33      C      0.009460000000     0.527450000000     0.422230000000     0.487891   
C34      C      0.013480000000     0.489880000000     0.039990000000     0.477948   
C35      C      0.051290000000     0.467990000000     0.463790000000     0.486539   
C36      C      0.971160000000     0.549600000000     0.998470000000     0.474816   
C37      C      0.670430000000     0.855550000000     0.089560000000     0.476697   
C38      C      0.675580000000     0.818780000000     0.207330000000     0.476561   
C39      C      0.710030000000     0.793170000000     0.130980000000     0.475489   
C40      C      0.636530000000     0.881150000000     0.165790000000     0.487174   
C41      C      0.857200000000     0.665660000000     0.124480000000     0.488281   
C42      C      0.819740000000     0.671430000000     0.006900000000     0.493737   
C43      C      0.794770000000     0.705660000000     0.083550000000     0.489815   
C44      C      0.881330000000     0.631090000000     0.047530000000     0.485876   
C45      C      0.528660000000     0.005080000000     0.289380000000     0.489433   
C46      C      0.489800000000     0.007370000000     0.171630000000     0.490126   
C47      C      0.467240000000     0.045720000000     0.247840000000     0.487565   
C48      C      0.551300000000     0.967960000000     0.213470000000     0.476786   
C49      C      0.342520000000     0.152100000000     0.005400000000     0.490698   
C50      C      0.344590000000     0.193230000000     0.123100000000     0.488268   
C51      C      0.380160000000     0.253100000000     0.046940000000     0.476288   
C52      C      0.306650000000     0.091570000000     0.081730000000     0.487936   
C53      C      0.525480000000     0.527100000000     0.040990000000     0.494673   
C54      C      0.488400000000     0.485330000000     0.423160000000     0.475494   
C55      C      0.464050000000     0.425230000000     0.999290000000     0.486005   
C56      C      0.549200000000     0.587020000000     0.464720000000     0.477764   
C57      C      0.157860000000     0.818610000000     0.087680000000     0.487383   
C58      C      0.196450000000     0.859070000000     0.205430000000     0.476327   
C59      C      0.220130000000     0.919450000000     0.129420000000     0.474068   
C60      C      0.134490000000     0.757760000000     0.163780000000     0.47571    
C61      C      0.009540000000     0.485090000000     0.172290000000     0.490529   
C62      C      0.013550000000     0.527360000000     0.289890000000     0.477707   
C63      C      0.049980000000     0.586440000000     0.213060000000     0.488335   
C64      C      0.972680000000     0.425220000000     0.248870000000     0.474982   
C65      C      0.859410000000     0.194500000000     0.374080000000     0.493782   
C66      C      0.821930000000     0.152280000000     0.256350000000     0.476258   
C67      C      0.795970000000     0.092340000000     0.332900000000     0.486369   
C68      C      0.885240000000     0.253630000000     0.297530000000     0.490246   
C69      C      0.673060000000     0.859830000000     0.457250000000     0.488165   
C70      C      0.669490000000     0.818320000000     0.339550000000     0.493597   
C71      C      0.633090000000     0.758690000000     0.415890000000     0.487944   
C72      C      0.709530000000     0.920350000000     0.380950000000     0.475125   
C73      C      0.775010000000     0.985250000000     0.364050000000     0.0237257  
C74      C      0.706770000000     0.984130000000     0.362640000000    -0.0302866  
C75      C      0.796230000000     0.027940000000     0.351210000000     0.0365484  
C76      C      0.728100000000     0.027460000000     0.350080000000     0.203047   
C77      C      0.906910000000     0.360750000000     0.265950000000     0.024737   
C78      C      0.974880000000     0.361340000000     0.267480000000    -0.0309733  
C79      C      0.885430000000     0.318140000000     0.278950000000     0.0387745  
C80      C      0.953230000000     0.317950000000     0.279870000000     0.203707   
C81      C      0.068830000000     0.693900000000     0.183150000000     0.0251412  
C82      C      0.135960000000     0.693040000000     0.179790000000    -0.0319468  
C83      C      0.047850000000     0.650740000000     0.195750000000     0.0378876  
C84      C      0.115430000000     0.650250000000     0.192640000000     0.20584    
C85      C      0.614950000000     0.651530000000     0.446110000000     0.0275202  
C86      C      0.547000000000     0.650940000000     0.447570000000    -0.0292415  
C87      C      0.635750000000     0.694770000000     0.433580000000     0.0387415  
C88      C      0.567220000000     0.693510000000     0.434340000000     0.203932   
C89      C      0.219880000000     0.984470000000     0.112270000000     0.0223829  
C90      C      0.286910000000     0.983170000000     0.111670000000    -0.031148   
C91      C      0.241620000000     0.027220000000     0.099520000000     0.0361685  
C92      C      0.309270000000     0.026700000000     0.099550000000     0.202557   
C93      C      0.445060000000     0.318690000000     0.030120000000     0.0262144  
C94      C      0.376110000000     0.316070000000     0.028490000000    -0.0300868  
C95      C      0.465690000000     0.361430000000     0.017350000000     0.0371427  
C96      C      0.396810000000     0.359390000000     0.015990000000     0.202458   
C97      C      0.712560000000     0.832520000000     0.257830000000     0.0249436  
C98      C      0.634590000000     0.788370000000     0.255490000000    -0.0317513  
C99      C      0.710660000000     0.830940000000     0.291480000000     0.0382269  
C100     C      0.632300000000     0.789500000000     0.289180000000     0.205428   
C101     C      0.709770000000     0.886180000000     0.040800000000     0.0246534  
C102     C      0.631620000000     0.843600000000     0.040110000000    -0.0301349  
C103     C      0.710340000000     0.886000000000     0.007120000000     0.03947    
C104     C      0.631870000000     0.845460000000     0.006370000000     0.205169   
C105     C      0.775020000000     0.792740000000     0.114200000000     0.0244464  
C106     C      0.706350000000     0.726090000000     0.113030000000    -0.0296579  
C107     C      0.795850000000     0.770780000000     0.101600000000     0.03791    
C108     C      0.727360000000     0.703500000000     0.100990000000     0.20444    
C109     C      0.550470000000     0.902190000000     0.196840000000     0.0265623  
C110     C      0.617540000000     0.970460000000     0.195120000000    -0.0303362  
C111     C      0.571870000000     0.880850000000     0.184060000000     0.0379613  
C112     C      0.639420000000     0.949060000000     0.182590000000     0.202939   
C113     C      0.973480000000     0.517660000000     0.338440000000     0.0243436  
C114     C      0.051650000000     0.553890000000     0.339600000000    -0.0301583  
C115     C      0.972530000000     0.516300000000     0.372140000000     0.0387324  
C116     C      0.051000000000     0.555030000000     0.373340000000     0.204758   
C117     C      0.973490000000     0.459000000000     0.088510000000     0.0264146  
C118     C      0.051640000000     0.501340000000     0.089660000000    -0.0293277  
C119     C      0.972560000000     0.459130000000     0.122210000000     0.0384729  
C120     C      0.051020000000     0.498810000000     0.123360000000     0.202856   
C121     C      0.971300000000     0.614520000000     0.017640000000     0.024581   
C122     C      0.904220000000     0.546420000000     0.014560000000    -0.0319837  
C123     C      0.948370000000     0.634730000000     0.030190000000     0.0373411  
C124     C      0.881210000000     0.566220000000     0.027350000000     0.202464   
C125     C      0.305930000000     0.124250000000     0.421870000000     0.0234609  
C126     C      0.384040000000     0.167190000000     0.422590000000    -0.0305466  
C127     C      0.305310000000     0.124990000000     0.455550000000     0.0377526  
C128     C      0.383760000000     0.165390000000     0.456330000000     0.202627   
C129     C      0.301450000000     0.176910000000     0.204920000000     0.0241704  
C130     C      0.379270000000     0.222700000000     0.207170000000    -0.0323425  
C131     C      0.303170000000     0.179090000000     0.171260000000     0.0371396  
C132     C      0.381390000000     0.222560000000     0.173440000000     0.203398   
C133     C      0.379090000000     0.064670000000     0.278500000000     0.0257801  
C134     C      0.446270000000     0.132830000000     0.278430000000    -0.0311502  
C135     C      0.401190000000     0.043560000000     0.266020000000     0.0375003  
C136     C      0.468300000000     0.112260000000     0.265220000000     0.202955   
C137     C      0.070640000000     0.379940000000     0.433640000000     0.0270265  
C138     C      0.138490000000     0.447460000000     0.432710000000    -0.0311315  
C139     C      0.049550000000     0.402000000000     0.446130000000     0.0383809  
C140     C      0.117860000000     0.469530000000     0.445840000000     0.201655   
C141     C      0.284780000000     0.303670000000     0.361640000000     0.0243822  
C142     C      0.216960000000     0.236230000000     0.363860000000    -0.0322937  
C143     C      0.305570000000     0.281160000000     0.349360000000     0.0367356  
C144     C      0.237360000000     0.213610000000     0.351370000000     0.202272   
C145     C      0.501000000000     0.460160000000     0.373110000000     0.0243808  
C146     C      0.457640000000     0.494940000000     0.374760000000    -0.0319403  
C147     C      0.498880000000     0.459300000000     0.339450000000     0.0373041  
C148     C      0.457970000000     0.496820000000     0.340990000000     0.204032   
C149     C      0.552730000000     0.511030000000     0.122790000000     0.0256971  
C150     C      0.519720000000     0.555950000000     0.125270000000    -0.0303363  
C151     C      0.552930000000     0.513210000000     0.089150000000     0.0414908  
C152     C      0.516670000000     0.555310000000     0.091540000000     0.207614   
C153     C      0.887230000000     0.180510000000     0.456220000000     0.0255726  
C154     C      0.853600000000     0.224890000000     0.457960000000    -0.0309174  
C155     C      0.887340000000     0.182000000000     0.422560000000     0.0393276  
C156     C      0.850700000000     0.223760000000     0.424220000000     0.206569   
C157     C      0.834840000000     0.128080000000     0.205970000000     0.025428   
C158     C      0.791740000000     0.163100000000     0.208100000000    -0.0314646  
C159     C      0.833030000000     0.128000000000     0.172310000000     0.0381477  
C160     C      0.792250000000     0.165640000000     0.174360000000     0.203756   
C161     C      0.128580000000     0.306210000000     0.290170000000     0.0264388  
C162     C      0.172180000000     0.384310000000     0.289310000000    -0.029429   
C163     C      0.128790000000     0.305490000000     0.256470000000     0.0386682  
C164     C      0.169830000000     0.383960000000     0.255570000000     0.202717   
C165     C      0.222300000000     0.381620000000     0.038520000000     0.0269389  
C166     C      0.187080000000     0.303490000000     0.040860000000    -0.0303875  
C167     C      0.223580000000     0.379840000000     0.004910000000     0.0396287  
C168     C      0.185610000000     0.301430000000     0.007090000000     0.20467    
C169     C      0.029880000000     0.239680000000     0.113770000000     0.0251381  
C170     C      0.031370000000     0.308130000000     0.112150000000    -0.0297136  
C171     C      0.987080000000     0.218500000000     0.101120000000     0.035825   
C172     C      0.987850000000     0.286820000000     0.100110000000     0.202251   
C173     C      0.363210000000     0.399700000000     0.195710000000     0.0252462  
C174     C      0.363850000000     0.467710000000     0.197740000000    -0.031859   
C175     C      0.320120000000     0.379070000000     0.183100000000     0.0383521  
C176     C      0.321060000000     0.447460000000     0.184890000000     0.206234   
C177     C      0.555320000000     0.047310000000     0.371400000000     0.0283589  
C178     C      0.523210000000     0.969420000000     0.373180000000    -0.0289018  
C179     C      0.556070000000     0.046010000000     0.337720000000     0.0404046  
C180     C      0.521160000000     0.967710000000     0.339430000000     0.206378   
C181     C      0.498050000000     0.042710000000     0.087780000000     0.0258278  
C182     C      0.463000000000     0.964580000000     0.089120000000    -0.0291447  
C183     C      0.499850000000     0.043890000000     0.121460000000     0.0382685  
C184     C      0.461770000000     0.965410000000     0.122870000000     0.202762   
C185     C      0.698090000000     0.066300000000     0.028490000000     0.0253064  
C186     C      0.696770000000     0.133300000000     0.030920000000    -0.0318797  
C187     C      0.654960000000     0.044870000000     0.015880000000     0.0377747  
C188     C      0.653960000000     0.112280000000     0.018090000000     0.203139   
C189     C      0.184520000000     0.884150000000     0.255670000000     0.024245   
C190     C      0.226880000000     0.848340000000     0.253610000000    -0.031618   
C191     C      0.186450000000     0.884450000000     0.289280000000     0.0378518  
C192     C      0.226020000000     0.845550000000     0.287360000000     0.205619   
C193     C      0.165080000000     0.790170000000     0.004060000000     0.0247065  
C194     C      0.130510000000     0.833730000000     0.005120000000    -0.0306783  
C195     C      0.167260000000     0.791340000000     0.037720000000     0.0388206  
C196     C      0.130200000000     0.832760000000     0.038880000000     0.2035     
C197     C      0.321350000000     0.945700000000     0.432380000000     0.0266003  
C198     C      0.321330000000     0.877990000000     0.431600000000    -0.0292103  
C199     C      0.364520000000     0.967030000000     0.444830000000     0.0384779  
C200     C      0.364050000000     0.898840000000     0.444720000000     0.203863   
C201     C      0.795910000000     0.629200000000     0.424780000000     0.0240729  
C202     C      0.828000000000     0.707050000000     0.422710000000    -0.0320041  
C203     C      0.794170000000     0.630620000000     0.458390000000     0.0383203  
C204     C      0.829400000000     0.708950000000     0.456480000000     0.205944   
C205     C      0.885650000000     0.708150000000     0.206360000000     0.0246149  
C206     C      0.851070000000     0.630050000000     0.208500000000    -0.0312328  
C207     C      0.885670000000     0.706460000000     0.172720000000     0.0372435  
C208     C      0.848360000000     0.628050000000     0.174750000000     0.204319   
C209     C      0.653730000000     0.612320000000     0.268460000000     0.0255196  
C210     C      0.652380000000     0.543950000000     0.267450000000    -0.0311283  
C211     C      0.696860000000     0.632880000000     0.280990000000     0.0378661  
C212     C      0.694990000000     0.564010000000     0.280680000000     0.202884   
C213     C      0.987390000000     0.707020000000     0.350600000000     0.0240994  
C214     C      0.987580000000     0.774740000000     0.347830000000    -0.0331788  
C215     C      0.031020000000     0.729490000000     0.362290000000     0.0375502  
C216     C      0.030940000000     0.797330000000     0.359700000000     0.202738   
C217     C      0.861850000000     0.671100000000     0.756730000000     0.476517   
C218     C      0.820740000000     0.666840000000     0.874630000000     0.475836   
C219     C      0.760610000000     0.630070000000     0.798550000000     0.48758    
C220     C      0.922610000000     0.708180000000     0.832640000000     0.47417    
C221     C      0.198260000000     0.855890000000     0.837650000000     0.493151   
C222     C      0.155150000000     0.819990000000     0.955320000000     0.476591   
C223     C      0.095740000000     0.796170000000     0.878630000000     0.485568   
C224     C      0.257150000000     0.879640000000     0.914160000000     0.476894   
C225     C      0.531320000000     0.009370000000     0.921530000000     0.478113   
C226     C      0.488240000000     0.002650000000     0.539220000000     0.475628   
C227     C      0.428930000000     0.965640000000     0.962600000000     0.488184   
C228     C      0.590290000000     0.046020000000     0.498380000000     0.486777   
C229     C      0.155510000000     0.342490000000     0.706530000000     0.48972    
C230     C      0.196620000000     0.344730000000     0.588820000000     0.477316   
C231     C      0.256450000000     0.381900000000     0.665350000000     0.488683   
C232     C      0.095020000000     0.305280000000     0.630310000000     0.4757     
C233     C      0.863230000000     0.194150000000     0.506400000000     0.477174   
C234     C      0.820740000000     0.156630000000     0.624070000000     0.48796    
C235     C      0.761570000000     0.132460000000     0.547580000000     0.475473   
C236     C      0.922840000000     0.219160000000     0.582910000000     0.488193   
C237     C      0.529460000000     0.524630000000     0.673330000000     0.47652    
C238     C      0.486590000000     0.487380000000     0.790960000000     0.488504   
C239     C      0.427690000000     0.465050000000     0.714550000000     0.475368   
C240     C      0.589000000000     0.547010000000     0.749900000000     0.475365   
C241     C      0.159660000000     0.345510000000     0.838880000000     0.47706    
C242     C      0.196070000000     0.338920000000     0.956600000000     0.488337   
C243     C      0.219260000000     0.302760000000     0.880190000000     0.47476    
C244     C      0.136430000000     0.381390000000     0.915320000000     0.476092   
C245     C      0.345260000000     0.154500000000     0.873040000000     0.475489   
C246     C      0.338790000000     0.190930000000     0.755330000000     0.476278   
C247     C      0.303070000000     0.214570000000     0.832140000000     0.486202   
C248     C      0.380570000000     0.130740000000     0.796460000000     0.475476   
C249     C      0.009460000000     0.527450000000     0.922230000000     0.487885   
C250     C      0.013480000000     0.489880000000     0.539990000000     0.477956   
C251     C      0.051290000000     0.467990000000     0.963790000000     0.486528   
C252     C      0.971160000000     0.549600000000     0.498470000000     0.474887   
C253     C      0.670430000000     0.855550000000     0.589560000000     0.476872   
C254     C      0.675580000000     0.818780000000     0.707330000000     0.476455   
C255     C      0.710030000000     0.793180000000     0.630980000000     0.47552    
C256     C      0.636530000000     0.881150000000     0.665790000000     0.487238   
C257     C      0.857200000000     0.665660000000     0.624480000000     0.488296   
C258     C      0.819750000000     0.671430000000     0.506900000000     0.493801   
C259     C      0.794770000000     0.705660000000     0.583540000000     0.489802   
C260     C      0.881330000000     0.631090000000     0.547530000000     0.485834   
C261     C      0.528660000000     0.005090000000     0.789380000000     0.489232   
C262     C      0.489800000000     0.007370000000     0.671630000000     0.4903     
C263     C      0.467240000000     0.045720000000     0.747840000000     0.48745    
C264     C      0.551310000000     0.967960000000     0.713470000000     0.476941   
C265     C      0.342520000000     0.152100000000     0.505400000000     0.490898   
C266     C      0.344590000000     0.193240000000     0.623100000000     0.488254   
C267     C      0.380160000000     0.253100000000     0.546940000000     0.476148   
C268     C      0.306650000000     0.091570000000     0.581730000000     0.487944   
C269     C      0.525480000000     0.527100000000     0.540990000000     0.494701   
C270     C      0.488400000000     0.485330000000     0.923160000000     0.475746   
C271     C      0.464050000000     0.425230000000     0.499290000000     0.486064   
C272     C      0.549200000000     0.587020000000     0.964720000000     0.477753   
C273     C      0.157860000000     0.818600000000     0.587680000000     0.487362   
C274     C      0.196440000000     0.859070000000     0.705430000000     0.476767   
C275     C      0.220130000000     0.919450000000     0.629420000000     0.473647   
C276     C      0.134490000000     0.757760000000     0.663780000000     0.475777   
C277     C      0.009540000000     0.485090000000     0.672290000000     0.490843   
C278     C      0.013550000000     0.527370000000     0.789890000000     0.477656   
C279     C      0.049980000000     0.586440000000     0.713060000000     0.488309   
C280     C      0.972680000000     0.425220000000     0.748870000000     0.474742   
C281     C      0.859410000000     0.194500000000     0.874080000000     0.494156   
C282     C      0.821930000000     0.152270000000     0.756350000000     0.476245   
C283     C      0.795970000000     0.092340000000     0.832900000000     0.486621   
C284     C      0.885240000000     0.253630000000     0.797530000000     0.490504   
C285     C      0.673060000000     0.859830000000     0.957250000000     0.488199   
C286     C      0.669490000000     0.818320000000     0.839560000000     0.493851   
C287     C      0.633090000000     0.758690000000     0.915890000000     0.487863   
C288     C      0.709530000000     0.920350000000     0.880950000000     0.475142   
C289     C      0.775010000000     0.985250000000     0.864050000000     0.0236922  
C290     C      0.706770000000     0.984130000000     0.862640000000    -0.0302635  
C291     C      0.796230000000     0.027940000000     0.851210000000     0.0365684  
C292     C      0.728100000000     0.027460000000     0.850080000000     0.203046   
C293     C      0.906910000000     0.360740000000     0.765950000000     0.0247592  
C294     C      0.974880000000     0.361340000000     0.767480000000    -0.0309815  
C295     C      0.885430000000     0.318140000000     0.778940000000     0.0387308  
C296     C      0.953230000000     0.317950000000     0.779870000000     0.203724   
C297     C      0.068830000000     0.693900000000     0.683150000000     0.0251825  
C298     C      0.135960000000     0.693040000000     0.679790000000    -0.0319577  
C299     C      0.047850000000     0.650740000000     0.695750000000     0.0378702  
C300     C      0.115430000000     0.650250000000     0.692640000000     0.205886   
C301     C      0.614950000000     0.651530000000     0.946110000000     0.0274795  
C302     C      0.547000000000     0.650940000000     0.947570000000    -0.0292484  
C303     C      0.635750000000     0.694770000000     0.933580000000     0.0387683  
C304     C      0.567220000000     0.693510000000     0.934340000000     0.203927   
C305     C      0.219880000000     0.984470000000     0.612270000000     0.0223563  
C306     C      0.286910000000     0.983170000000     0.611670000000    -0.0311874  
C307     C      0.241620000000     0.027220000000     0.599520000000     0.0362349  
C308     C      0.309270000000     0.026700000000     0.599550000000     0.202505   
C309     C      0.445060000000     0.318690000000     0.530120000000     0.0262289  
C310     C      0.376110000000     0.316070000000     0.528490000000    -0.030117   
C311     C      0.465690000000     0.361430000000     0.517350000000     0.0371148  
C312     C      0.396810000000     0.359390000000     0.515990000000     0.202483   
C313     C      0.712560000000     0.832520000000     0.757830000000     0.0249449  
C314     C      0.634590000000     0.788360000000     0.755490000000    -0.0317252  
C315     C      0.710660000000     0.830930000000     0.791480000000     0.0382164  
C316     C      0.632300000000     0.789500000000     0.789180000000     0.205367   
C317     C      0.709770000000     0.886180000000     0.540800000000     0.0247094  
C318     C      0.631620000000     0.843600000000     0.540110000000    -0.0300647  
C319     C      0.710340000000     0.885990000000     0.507120000000     0.0393235  
C320     C      0.631870000000     0.845460000000     0.506370000000     0.20499    
C321     C      0.775020000000     0.792740000000     0.614200000000     0.0243976  
C322     C      0.706350000000     0.726090000000     0.613030000000    -0.0296391  
C323     C      0.795850000000     0.770780000000     0.601600000000     0.0379223  
C324     C      0.727360000000     0.703500000000     0.600990000000     0.204424   
C325     C      0.550470000000     0.902200000000     0.696840000000     0.0266424  
C326     C      0.617550000000     0.970460000000     0.695120000000    -0.0303543  
C327     C      0.571870000000     0.880850000000     0.684060000000     0.0378807  
C328     C      0.639420000000     0.949060000000     0.682590000000     0.202989   
C329     C      0.973480000000     0.517660000000     0.838440000000     0.024366   
C330     C      0.051650000000     0.553890000000     0.839600000000    -0.0301568  
C331     C      0.972530000000     0.516300000000     0.872140000000     0.0387224  
C332     C      0.051000000000     0.555030000000     0.873340000000     0.204758   
C333     C      0.973490000000     0.459000000000     0.588510000000     0.0264034  
C334     C      0.051640000000     0.501340000000     0.589660000000    -0.0293378  
C335     C      0.972560000000     0.459140000000     0.622210000000     0.0384903  
C336     C      0.051020000000     0.498810000000     0.623360000000     0.202873   
C337     C      0.971300000000     0.614510000000     0.517640000000     0.0246634  
C338     C      0.904220000000     0.546420000000     0.514560000000    -0.0319596  
C339     C      0.948370000000     0.634730000000     0.530190000000     0.0372741  
C340     C      0.881220000000     0.566220000000     0.527350000000     0.202379   
C341     C      0.305940000000     0.124250000000     0.921870000000     0.0234632  
C342     C      0.384040000000     0.167190000000     0.922590000000    -0.0305506  
C343     C      0.305320000000     0.124990000000     0.955550000000     0.0377953  
C344     C      0.383760000000     0.165400000000     0.956340000000     0.202734   
C345     C      0.301450000000     0.176920000000     0.704920000000     0.0241935  
C346     C      0.379270000000     0.222700000000     0.707170000000    -0.0323141  
C347     C      0.303170000000     0.179090000000     0.671260000000     0.0371335  
C348     C      0.381390000000     0.222560000000     0.673440000000     0.203357   
C349     C      0.379090000000     0.064670000000     0.778500000000     0.0257728  
C350     C      0.446280000000     0.132830000000     0.778430000000    -0.0312216  
C351     C      0.401190000000     0.043560000000     0.766010000000     0.0375148  
C352     C      0.468300000000     0.112260000000     0.765220000000     0.20299    
C353     C      0.070650000000     0.379950000000     0.933640000000     0.027096   
C354     C      0.138480000000     0.447460000000     0.932710000000    -0.0311582  
C355     C      0.049560000000     0.402000000000     0.946130000000     0.038337   
C356     C      0.117860000000     0.469530000000     0.945840000000     0.201672   
C357     C      0.284780000000     0.303670000000     0.861640000000     0.0244067  
C358     C      0.216960000000     0.236230000000     0.863860000000    -0.032394   
C359     C      0.305570000000     0.281160000000     0.849360000000     0.036731   
C360     C      0.237360000000     0.213620000000     0.851370000000     0.202257   
C361     C      0.501000000000     0.460160000000     0.873110000000     0.024392   
C362     C      0.457640000000     0.494940000000     0.874760000000    -0.0319323  
C363     C      0.498880000000     0.459300000000     0.839450000000     0.0372967  
C364     C      0.457970000000     0.496820000000     0.840990000000     0.204027   
C365     C      0.552730000000     0.511030000000     0.622790000000     0.0257237  
C366     C      0.519710000000     0.555950000000     0.625270000000    -0.030447   
C367     C      0.552930000000     0.513210000000     0.589150000000     0.0414323  
C368     C      0.516670000000     0.555310000000     0.591540000000     0.207732   
C369     C      0.887230000000     0.180510000000     0.956210000000     0.0255286  
C370     C      0.853600000000     0.224890000000     0.957960000000    -0.0309757  
C371     C      0.887340000000     0.182000000000     0.922560000000     0.0393037  
C372     C      0.850700000000     0.223760000000     0.924220000000     0.206699   
C373     C      0.834840000000     0.128080000000     0.705970000000     0.0253927  
C374     C      0.791740000000     0.163100000000     0.708100000000    -0.0314676  
C375     C      0.833030000000     0.128000000000     0.672310000000     0.0381766  
C376     C      0.792250000000     0.165640000000     0.674360000000     0.203748   
C377     C      0.128580000000     0.306210000000     0.790160000000     0.0264047  
C378     C      0.172190000000     0.384310000000     0.789310000000    -0.0294137  
C379     C      0.128790000000     0.305490000000     0.756470000000     0.0386694  
C380     C      0.169830000000     0.383960000000     0.755570000000     0.202697   
C381     C      0.222300000000     0.381620000000     0.538520000000     0.026977   
C382     C      0.187080000000     0.303490000000     0.540860000000    -0.0303595  
C383     C      0.223580000000     0.379840000000     0.504910000000     0.0394648  
C384     C      0.185610000000     0.301430000000     0.507090000000     0.20458    
C385     C      0.029880000000     0.239680000000     0.613770000000     0.0251095  
C386     C      0.031370000000     0.308130000000     0.612150000000    -0.0297131  
C387     C      0.987070000000     0.218500000000     0.601120000000     0.0358912  
C388     C      0.987850000000     0.286820000000     0.600110000000     0.202243   
C389     C      0.363210000000     0.399700000000     0.695710000000     0.0253114  
C390     C      0.363860000000     0.467710000000     0.697740000000    -0.0317007  
C391     C      0.320120000000     0.379060000000     0.683100000000     0.0382313  
C392     C      0.321060000000     0.447460000000     0.684890000000     0.20606    
C393     C      0.555320000000     0.047320000000     0.871400000000     0.0283776  
C394     C      0.523220000000     0.969430000000     0.873180000000    -0.0288924  
C395     C      0.556070000000     0.046020000000     0.837720000000     0.0403401  
C396     C      0.521160000000     0.967720000000     0.839440000000     0.206289   
C397     C      0.498050000000     0.042710000000     0.587780000000     0.0258283  
C398     C      0.463010000000     0.964580000000     0.589120000000    -0.0291615  
C399     C      0.499850000000     0.043890000000     0.621460000000     0.038248   
C400     C      0.461780000000     0.965410000000     0.622870000000     0.202771   
C401     C      0.698090000000     0.066300000000     0.528490000000     0.0252938  
C402     C      0.696770000000     0.133300000000     0.530920000000    -0.0318627  
C403     C      0.654960000000     0.044870000000     0.515880000000     0.0378215  
C404     C      0.653960000000     0.112270000000     0.518090000000     0.203133   
C405     C      0.184510000000     0.884150000000     0.755670000000     0.0242353  
C406     C      0.226870000000     0.848350000000     0.753610000000    -0.0315735  
C407     C      0.186450000000     0.884450000000     0.789280000000     0.0378652  
C408     C      0.226020000000     0.845560000000     0.787350000000     0.205552   
C409     C      0.165080000000     0.790170000000     0.504060000000     0.0245697  
C410     C      0.130510000000     0.833730000000     0.505120000000    -0.030877   
C411     C      0.167260000000     0.791340000000     0.537720000000     0.038845   
C412     C      0.130190000000     0.832760000000     0.538880000000     0.203673   
C413     C      0.321350000000     0.945700000000     0.932380000000     0.0266221  
C414     C      0.321330000000     0.877990000000     0.931600000000    -0.029313   
C415     C      0.364520000000     0.967030000000     0.944830000000     0.0384158  
C416     C      0.364040000000     0.898840000000     0.944710000000     0.203844   
C417     C      0.795910000000     0.629200000000     0.924780000000     0.0240851  
C418     C      0.828000000000     0.707050000000     0.922720000000    -0.03207    
C419     C      0.794170000000     0.630620000000     0.958390000000     0.0383052  
C420     C      0.829400000000     0.708950000000     0.956480000000     0.205977   
C421     C      0.885650000000     0.708150000000     0.706360000000     0.0246151  
C422     C      0.851070000000     0.630050000000     0.708500000000    -0.0312077  
C423     C      0.885670000000     0.706460000000     0.672720000000     0.0372455  
C424     C      0.848360000000     0.628050000000     0.674750000000     0.204252   
C425     C      0.653730000000     0.612330000000     0.768460000000     0.0254256  
C426     C      0.652380000000     0.543950000000     0.767450000000    -0.0311313  
C427     C      0.696860000000     0.632880000000     0.780980000000     0.0379064  
C428     C      0.694990000000     0.564010000000     0.780680000000     0.202883   
C429     C      0.987390000000     0.707020000000     0.850600000000     0.0241038  
C430     C      0.987580000000     0.774740000000     0.847830000000    -0.0331818  
C431     C      0.031020000000     0.729490000000     0.862290000000     0.037557   
C432     C      0.030940000000     0.797330000000     0.859700000000     0.202749   
H1       H      0.831740000000     0.043550000000     0.347380000000     0.0327964  
H2       H      0.795120000000     0.970130000000     0.369010000000     0.0355677  
H3       H      0.671240000000     0.967800000000     0.366650000000     0.0628761  
H4       H      0.692880000000     0.038480000000     0.320840000000     0.15041    
H5       H      0.849950000000     0.302810000000     0.282870000000     0.0357652  
H6       H      0.887010000000     0.376090000000     0.260920000000     0.0374332  
H7       H      0.010410000000     0.377440000000     0.263520000000     0.0624784  
H8       H      0.978590000000     0.283520000000     0.266310000000     0.149359   
H9       H      0.012900000000     0.635460000000     0.201680000000     0.035331   
H10      H      0.049220000000     0.709950000000     0.179890000000     0.0381518  
H11      H      0.170930000000     0.708300000000     0.173840000000     0.0631609  
H12      H      0.137680000000     0.614710000000     0.175470000000     0.1577     
H13      H      0.671020000000     0.710730000000     0.428610000000     0.0380246  
H14      H      0.634970000000     0.636080000000     0.450170000000     0.0407169  
H15      H      0.511750000000     0.635060000000     0.452680000000     0.0644806  
H16      H      0.529130000000     0.703370000000     0.407230000000     0.154421   
H17      H      0.221830000000     0.042880000000     0.095290000000     0.0325425  
H18      H      0.184560000000     0.969350000000     0.116800000000     0.0356461  
H19      H      0.305990000000     0.966730000000     0.115920000000     0.06144    
H20      H      0.368730000000     0.060530000000     0.113910000000     0.151143   
H21      H      0.501270000000     0.377700000000     0.013640000000     0.0344987  
H22      H      0.465680000000     0.304150000000     0.035140000000     0.0408532  
H23      H      0.340530000000     0.299130000000     0.032360000000     0.0613211  
H24      H      0.361180000000     0.369530000000     0.986550000000     0.148955   
H25      H      0.741680000000     0.848500000000     0.304650000000     0.0304381  
H26      H      0.744840000000     0.850640000000     0.246370000000     0.0344243  
H27      H      0.603690000000     0.771030000000     0.242140000000     0.0597782  
H28      H      0.580080000000     0.787950000000     0.304160000000     0.15385    
H29      H      0.742280000000     0.902590000000     0.995040000000     0.0311129  
H30      H      0.741320000000     0.902290000000     0.053400000000     0.0345789  
H31      H      0.599860000000     0.825930000000     0.052360000000     0.0617073  
H32      H      0.585230000000     0.793360000000     0.987420000000     0.15808    
H33      H      0.831370000000     0.790360000000     0.097670000000     0.0340155  
H34      H      0.795480000000     0.827990000000     0.118960000000     0.0358627  
H35      H      0.670800000000     0.707290000000     0.117010000000     0.0650181  
H36      H      0.701110000000     0.643830000000     0.115060000000     0.152829   
H37      H      0.552010000000     0.845280000000     0.180380000000     0.0359059  
H38      H      0.515280000000     0.882140000000     0.201910000000     0.0420234  
H39      H      0.636780000000     0.006040000000     0.198970000000     0.0615814  
H40      H      0.685370000000     0.984120000000     0.153120000000     0.149353   
H41      H      0.940470000000     0.500430000000     0.384050000000     0.0314325  
H42      H      0.942090000000     0.502090000000     0.325630000000     0.0349121  
H43      H      0.083560000000     0.568400000000     0.327520000000     0.0620486  
H44      H      0.097730000000     0.549850000000     0.392440000000     0.156938   
H45      H      0.940500000000     0.442810000000     0.134130000000     0.0324038  
H46      H      0.942100000000     0.443140000000     0.075700000000     0.0371186  
H47      H      0.083530000000     0.519020000000     0.077570000000     0.0590736  
H48      H      0.099390000000     0.496470000000     0.142150000000     0.148532   
H49      H      0.967430000000     0.669800000000     0.035990000000     0.0369308  
H50      H      0.006860000000     0.634800000000     0.014300000000     0.0403224  
H51      H      0.885180000000     0.511340000000     0.508740000000     0.0617996  
H52      H      0.823180000000     0.542570000000     0.510350000000     0.145528   
H53      H      0.273350000000     0.108560000000     0.467600000000     0.0305638  
H54      H      0.274400000000     0.107880000000     0.409240000000     0.033378   
H55      H      0.415800000000     0.184870000000     0.410330000000     0.0596312  
H56      H      0.432520000000     0.163870000000     0.475190000000     0.148569   
H57      H      0.272200000000     0.160950000000     0.158100000000     0.0301983  
H58      H      0.269300000000     0.157880000000     0.216430000000     0.0354854  
H59      H      0.410180000000     0.240370000000     0.220470000000     0.0589483  
H60      H      0.426340000000     0.275980000000     0.154890000000     0.145089   
H61      H      0.381820000000     0.008100000000     0.261700000000     0.0381185  
H62      H      0.343800000000     0.044650000000     0.283180000000     0.0389757  
H63      H      0.465620000000     0.168280000000     0.282870000000     0.0618492  
H64      H      0.515080000000     0.149400000000     0.236960000000     0.149147   
H65      H      0.014230000000     0.382410000000     0.450860000000     0.0396646  
H66      H      0.050730000000     0.344510000000     0.429400000000     0.041649   
H67      H      0.173790000000     0.466910000000     0.427820000000     0.0618332  
H68      H      0.155200000000     0.517220000000     0.973370000000     0.149763   
H69      H      0.340730000000     0.300550000000     0.344020000000     0.0349846  
H70      H      0.304760000000     0.339240000000     0.365240000000     0.0373067  
H71      H      0.181770000000     0.216910000000     0.369220000000     0.0617327  
H72      H      0.213580000000     0.155340000000     0.367990000000     0.145908   
H73      H      0.516060000000     0.445200000000     0.326540000000     0.0304504  
H74      H      0.519010000000     0.446060000000     0.384860000000     0.034364   
H75      H      0.440970000000     0.509430000000     0.387840000000     0.0599513  
H76      H      0.405490000000     0.490370000000     0.322150000000     0.145333   
H77      H      0.566260000000     0.495560000000     0.075920000000     0.0324611  
H78      H      0.566390000000     0.492400000000     0.134200000000     0.036415   
H79      H      0.506270000000     0.573350000000     0.138690000000     0.0606073  
H80      H      0.466450000000     0.557550000000     0.076320000000     0.155448   
H81      H      0.900890000000     0.164300000000     0.409660000000     0.0315129  
H82      H      0.901180000000     0.162310000000     0.467910000000     0.0353571  
H83      H      0.839940000000     0.242320000000     0.471090000000     0.0606295  
H84      H      0.800390000000     0.225630000000     0.408730000000     0.155077   
H85      H      0.850200000000     0.114030000000     0.159230000000     0.0306524  
H86      H      0.852660000000     0.113620000000     0.217510000000     0.0344857  
H87      H      0.775030000000     0.177410000000     0.221370000000     0.0595706  
H88      H      0.739900000000     0.159650000000     0.155630000000     0.145192   
H89      H      0.111940000000     0.273500000000     0.244460000000     0.0308248  
H90      H      0.112100000000     0.274700000000     0.302830000000     0.0362244  
H91      H      0.190330000000     0.416090000000     0.301500000000     0.0601206  
H92      H      0.168750000000     0.433050000000     0.236850000000     0.14892    
H93      H      0.238040000000     0.410960000000     0.991740000000     0.03224    
H94      H      0.236450000000     0.413920000000     0.049980000000     0.0376616  
H95      H      0.172260000000     0.272520000000     0.054230000000     0.0588193  
H96      H      0.191850000000     0.254830000000     0.989060000000     0.144536   
H97      H      0.971280000000     0.182940000000     0.097330000000     0.0329033  
H98      H      0.044930000000     0.219490000000     0.118720000000     0.0358249  
H99      H      0.047880000000     0.343730000000     0.115960000000     0.061609   
H100     H      0.954290000000     0.313040000000     0.113890000000     0.150781   
H101     H      0.304300000000     0.343890000000     0.177730000000     0.0354941  
H102     H      0.378610000000     0.379580000000     0.199510000000     0.0376502  
H103     H      0.379760000000     0.502900000000     0.203140000000     0.0642345  
H104     H      0.286480000000     0.471310000000     0.201180000000     0.157886   
H105     H      0.569010000000     0.077140000000     0.324730000000     0.0362763  
H106     H      0.568370000000     0.079350000000     0.383100000000     0.0386562  
H107     H      0.509840000000     0.938350000000     0.386310000000     0.0651341  
H108     H      0.529650000000     0.922930000000     0.320590000000     0.146173   
H109     H      0.515520000000     0.076040000000     0.133260000000     0.0307919  
H110     H      0.513050000000     0.074060000000     0.074890000000     0.0347109  
H111     H      0.448890000000     0.932630000000     0.077110000000     0.0597054  
H112     H      0.411770000000     0.916820000000     0.142130000000     0.148202   
H113     H      0.639920000000     0.009800000000     0.010340000000     0.0383654  
H114     H      0.714300000000     0.046910000000     0.032120000000     0.0381475  
H115     H      0.711870000000     0.168390000000     0.036470000000     0.0628172  
H116     H      0.618290000000     0.134760000000     0.534570000000     0.146621   
H117     H      0.169730000000     0.898960000000     0.302290000000     0.029656   
H118     H      0.167010000000     0.898920000000     0.244090000000     0.0337638  
H119     H      0.243270000000     0.833710000000     0.240330000000     0.0603694  
H120     H      0.226000000000     0.794270000000     0.302870000000     0.155359   
H121     H      0.182720000000     0.774710000000     0.049640000000     0.0315793  
H122     H      0.179690000000     0.773370000000     0.991290000000     0.0358977  
H123     H      0.116400000000     0.851500000000     0.993000000000     0.0601647  
H124     H      0.137200000000     0.885690000000     0.057490000000     0.147306   
H125     H      0.380130000000     0.002380000000     0.949480000000     0.0366194  
H126     H      0.305690000000     0.965490000000     0.428080000000     0.0387817  
H127     H      0.305600000000     0.842640000000     0.426820000000     0.0642524  
H128     H      0.374540000000     0.861730000000     0.472430000000     0.149295   
H129     H      0.780760000000     0.599490000000     0.471450000000     0.0300464  
H130     H      0.783140000000     0.597110000000     0.413220000000     0.0340276  
H131     H      0.841560000000     0.738060000000     0.409470000000     0.0592201  
H132     H      0.878340000000     0.761720000000     0.472640000000     0.153356   
H133     H      0.899460000000     0.737610000000     0.159660000000     0.0307283  
H134     H      0.899970000000     0.740410000000     0.217910000000     0.0336272  
H135     H      0.836930000000     0.599060000000     0.221810000000     0.0628746  
H136     H      0.854400000000     0.581760000000     0.155910000000     0.147002   
H137     H      0.713030000000     0.668240000000     0.285750000000     0.0362104  
H138     H      0.638650000000     0.632640000000     0.264220000000     0.0406958  
H139     H      0.636110000000     0.508600000000     0.262560000000     0.0614514  
H140     H      0.704500000000     0.526150000000     0.308300000000     0.147305   
H141     H      0.046680000000     0.709980000000     0.367660000000     0.0377129  
H142     H      0.971460000000     0.671350000000     0.347440000000     0.0386378  
H143     H      0.971860000000     0.794210000000     0.342440000000     0.0606573  
H144     H      0.065380000000     0.855060000000     0.342200000000     0.145258   
H145     H      0.831740000000     0.043550000000     0.847380000000     0.0327865  
H146     H      0.795120000000     0.970130000000     0.869010000000     0.035567   
H147     H      0.671240000000     0.967800000000     0.866650000000     0.0628551  
H148     H      0.692880000000     0.038480000000     0.820840000000     0.150412   
H149     H      0.849960000000     0.302810000000     0.782870000000     0.0357788  
H150     H      0.887010000000     0.376090000000     0.760920000000     0.0374389  
H151     H      0.010410000000     0.377440000000     0.763520000000     0.0624887  
H152     H      0.978600000000     0.283520000000     0.766310000000     0.149331   
H153     H      0.012900000000     0.635460000000     0.701680000000     0.0353349  
H154     H      0.049210000000     0.709960000000     0.679890000000     0.0381418  
H155     H      0.170930000000     0.708300000000     0.673840000000     0.0631651  
H156     H      0.137690000000     0.614710000000     0.675480000000     0.157806   
H157     H      0.671030000000     0.710730000000     0.928610000000     0.0380174  
H158     H      0.634960000000     0.636080000000     0.950170000000     0.0407206  
H159     H      0.511750000000     0.635060000000     0.952680000000     0.0644745  
H160     H      0.529130000000     0.703370000000     0.907230000000     0.154422   
H161     H      0.221830000000     0.042880000000     0.595290000000     0.0325217  
H162     H      0.184550000000     0.969350000000     0.616800000000     0.0356532  
H163     H      0.305980000000     0.966730000000     0.615920000000     0.0614596  
H164     H      0.368730000000     0.060530000000     0.613910000000     0.15114    
H165     H      0.501270000000     0.377700000000     0.513640000000     0.0344845  
H166     H      0.465690000000     0.304150000000     0.535150000000     0.0408378  
H167     H      0.340530000000     0.299130000000     0.532360000000     0.0613185  
H168     H      0.361180000000     0.369530000000     0.486550000000     0.149152   
H169     H      0.741680000000     0.848500000000     0.804650000000     0.030442   
H170     H      0.744840000000     0.850640000000     0.746370000000     0.0344215  
H171     H      0.603690000000     0.771030000000     0.742140000000     0.0597719  
H172     H      0.580080000000     0.787950000000     0.804160000000     0.153736   
H173     H      0.742280000000     0.902590000000     0.495040000000     0.0311874  
H174     H      0.741320000000     0.902300000000     0.553400000000     0.0345534  
H175     H      0.599860000000     0.825930000000     0.552360000000     0.0616686  
H176     H      0.585230000000     0.793360000000     0.487420000000     0.157964   
H177     H      0.831370000000     0.790360000000     0.597670000000     0.0340127  
H178     H      0.795480000000     0.827990000000     0.618960000000     0.0358711  
H179     H      0.670800000000     0.707290000000     0.617010000000     0.0650054  
H180     H      0.701110000000     0.643830000000     0.615060000000     0.152836   
H181     H      0.552010000000     0.845290000000     0.680380000000     0.0359162  
H182     H      0.515280000000     0.882140000000     0.701910000000     0.0419863  
H183     H      0.636780000000     0.006050000000     0.698970000000     0.0615933  
H184     H      0.685370000000     0.984120000000     0.653120000000     0.149393   
H185     H      0.940470000000     0.500430000000     0.884050000000     0.0314303  
H186     H      0.942080000000     0.502090000000     0.825630000000     0.0349014  
H187     H      0.083560000000     0.568400000000     0.827520000000     0.0620479  
H188     H      0.097730000000     0.549850000000     0.892440000000     0.156939   
H189     H      0.940500000000     0.442810000000     0.634130000000     0.0323936  
H190     H      0.942100000000     0.443140000000     0.575700000000     0.0371149  
H191     H      0.083530000000     0.519020000000     0.577570000000     0.0590672  
H192     H      0.099390000000     0.496470000000     0.642150000000     0.148529   
H193     H      0.967430000000     0.669790000000     0.535990000000     0.0369311  
H194     H      0.006860000000     0.634810000000     0.514300000000     0.0402657  
H195     H      0.885190000000     0.511350000000     0.008740000000     0.0618364  
H196     H      0.823180000000     0.542570000000     0.010350000000     0.14556    
H197     H      0.273350000000     0.108560000000     0.967600000000     0.030537   
H198     H      0.274410000000     0.107880000000     0.909240000000     0.0333767  
H199     H      0.415800000000     0.184870000000     0.910330000000     0.0596241  
H200     H      0.432520000000     0.163880000000     0.975190000000     0.148689   
H201     H      0.272200000000     0.160950000000     0.658100000000     0.0301998  
H202     H      0.269300000000     0.157880000000     0.716430000000     0.0354771  
H203     H      0.410180000000     0.240370000000     0.720470000000     0.0589368  
H204     H      0.426340000000     0.275990000000     0.654890000000     0.144967   
H205     H      0.381820000000     0.008100000000     0.761700000000     0.0381022  
H206     H      0.343800000000     0.044660000000     0.783180000000     0.0389826  
H207     H      0.465620000000     0.168290000000     0.782870000000     0.0618667  
H208     H      0.515080000000     0.149400000000     0.736960000000     0.149156   
H209     H      0.014240000000     0.382410000000     0.950860000000     0.039667   
H210     H      0.050730000000     0.344510000000     0.929400000000     0.0416311  
H211     H      0.173790000000     0.466910000000     0.927830000000     0.0618378  
H212     H      0.155200000000     0.517220000000     0.473370000000     0.149729   
H213     H      0.340730000000     0.300550000000     0.844020000000     0.0349762  
H214     H      0.304760000000     0.339240000000     0.865240000000     0.0372946  
H215     H      0.181780000000     0.216910000000     0.869220000000     0.0617605  
H216     H      0.213590000000     0.155350000000     0.867990000000     0.145921   
H217     H      0.516060000000     0.445200000000     0.826540000000     0.0304474  
H218     H      0.519010000000     0.446060000000     0.884870000000     0.0343536  
H219     H      0.440970000000     0.509430000000     0.887840000000     0.0599435  
H220     H      0.405490000000     0.490370000000     0.822150000000     0.145331   
H221     H      0.566260000000     0.495560000000     0.575920000000     0.0324662  
H222     H      0.566400000000     0.492400000000     0.634200000000     0.0364016  
H223     H      0.506270000000     0.573350000000     0.638690000000     0.0606425  
H224     H      0.466460000000     0.557550000000     0.576320000000     0.155537   
H225     H      0.900890000000     0.164300000000     0.909660000000     0.031518   
H226     H      0.901170000000     0.162310000000     0.967910000000     0.0353587  
H227     H      0.839940000000     0.242320000000     0.971090000000     0.0606107  
H228     H      0.800390000000     0.225630000000     0.908730000000     0.154987   
H229     H      0.850200000000     0.114030000000     0.659230000000     0.0306489  
H230     H      0.852650000000     0.113620000000     0.717510000000     0.0344948  
H231     H      0.775030000000     0.177410000000     0.721360000000     0.0595749  
H232     H      0.739900000000     0.159650000000     0.655630000000     0.145187   
H233     H      0.111940000000     0.273500000000     0.744460000000     0.0308276  
H234     H      0.112100000000     0.274700000000     0.802830000000     0.0362351  
H235     H      0.190340000000     0.416090000000     0.801500000000     0.0601165  
H236     H      0.168750000000     0.433060000000     0.736850000000     0.148839   
H237     H      0.238040000000     0.410950000000     0.491750000000     0.0323095  
H238     H      0.236450000000     0.413920000000     0.549970000000     0.0376307  
H239     H      0.172250000000     0.272520000000     0.554230000000     0.0588058  
H240     H      0.191840000000     0.254830000000     0.489060000000     0.144657   
H241     H      0.971280000000     0.182940000000     0.597330000000     0.0328854  
H242     H      0.044930000000     0.219490000000     0.618720000000     0.0358293  
H243     H      0.047880000000     0.343730000000     0.615960000000     0.0616082  
H244     H      0.954280000000     0.313040000000     0.613890000000     0.15073    
H245     H      0.304290000000     0.343890000000     0.677730000000     0.0355323  
H246     H      0.378610000000     0.379580000000     0.699510000000     0.0376323  
H247     H      0.379760000000     0.502900000000     0.703140000000     0.064179   
H248     H      0.286480000000     0.471310000000     0.701180000000     0.15789    
H249     H      0.569010000000     0.077150000000     0.824720000000     0.0362856  
H250     H      0.568370000000     0.079350000000     0.883100000000     0.0386396  
H251     H      0.509840000000     0.938350000000     0.886310000000     0.0651231  
H252     H      0.529660000000     0.922940000000     0.820590000000     0.146119   
H253     H      0.515530000000     0.076040000000     0.633260000000     0.0308049  
H254     H      0.513050000000     0.074060000000     0.574890000000     0.0347067  
H255     H      0.448890000000     0.932630000000     0.577120000000     0.0597029  
H256     H      0.411770000000     0.916820000000     0.642130000000     0.148202   
H257     H      0.639920000000     0.009800000000     0.510340000000     0.038344   
H258     H      0.714300000000     0.046910000000     0.532120000000     0.0381384  
H259     H      0.711870000000     0.168390000000     0.536470000000     0.0628176  
H260     H      0.618300000000     0.134770000000     0.034580000000     0.146584   
H261     H      0.169720000000     0.898960000000     0.802290000000     0.0296504  
H262     H      0.167010000000     0.898920000000     0.744090000000     0.0337576  
H263     H      0.243270000000     0.833720000000     0.740330000000     0.060341   
H264     H      0.226000000000     0.794270000000     0.802870000000     0.155277   
H265     H      0.182720000000     0.774710000000     0.549640000000     0.0315439  
H266     H      0.179690000000     0.773370000000     0.491290000000     0.0359601  
H267     H      0.116390000000     0.851490000000     0.493000000000     0.0602404  
H268     H      0.137190000000     0.885680000000     0.557480000000     0.147378   
H269     H      0.380130000000     0.002380000000     0.449490000000     0.0366168  
H270     H      0.305690000000     0.965490000000     0.928080000000     0.0387732  
H271     H      0.305600000000     0.842650000000     0.926810000000     0.0642948  
H272     H      0.374540000000     0.861730000000     0.972430000000     0.149283   
H273     H      0.780750000000     0.599490000000     0.971450000000     0.0300348  
H274     H      0.783140000000     0.597110000000     0.913220000000     0.0340134  
H275     H      0.841560000000     0.738060000000     0.909470000000     0.0592266  
H276     H      0.878340000000     0.761720000000     0.972640000000     0.153346   
H277     H      0.899460000000     0.737610000000     0.659660000000     0.03073    
H278     H      0.899970000000     0.740410000000     0.717910000000     0.033621   
H279     H      0.836920000000     0.599060000000     0.721810000000     0.0628716  
H280     H      0.854400000000     0.581760000000     0.655910000000     0.147062   
H281     H      0.713030000000     0.668240000000     0.785750000000     0.0361988  
H282     H      0.638650000000     0.632640000000     0.764220000000     0.0407188  
H283     H      0.636110000000     0.508600000000     0.762560000000     0.0614599  
H284     H      0.704500000000     0.526160000000     0.808300000000     0.147333   
H285     H      0.046680000000     0.709980000000     0.867660000000     0.0377073  
H286     H      0.971460000000     0.671350000000     0.847440000000     0.0386301  
H287     H      0.971860000000     0.794210000000     0.842440000000     0.0606455  
H288     H      0.065380000000     0.855070000000     0.842200000000     0.145242   
N1       N      0.730270000000     0.963160000000     0.369590000000    -0.177746   
N2       N      0.773160000000     0.049460000000     0.344400000000    -0.215689   
N3       N      0.951650000000     0.382510000000     0.260410000000    -0.177622   
N4       N      0.908220000000     0.296370000000     0.285800000000    -0.215305   
N5       N      0.112910000000     0.714990000000     0.175230000000    -0.177306   
N6       N      0.071110000000     0.628960000000     0.200860000000    -0.215408   
N7       N      0.570580000000     0.629750000000     0.453160000000    -0.176492   
N8       N      0.612020000000     0.715850000000     0.427550000000    -0.21515    
N9       N      0.242370000000     0.962280000000     0.118140000000    -0.178158   
N10      N      0.286330000000     0.048710000000     0.093270000000    -0.215994   
N11      N      0.400270000000     0.295870000000     0.035550000000    -0.177157   
N12      N      0.441950000000     0.382210000000     0.010530000000    -0.215687   
N13      N      0.674420000000     0.812270000000     0.239970000000    -0.178085   
N14      N      0.670560000000     0.811870000000     0.307040000000    -0.218023   
N15      N      0.670540000000     0.862730000000     0.057090000000    -0.178067   
N16      N      0.671560000000     0.864850000000     0.989940000000    -0.216929   
N17      N      0.730260000000     0.770570000000     0.119730000000    -0.177564   
N18      N      0.772390000000     0.726160000000     0.095060000000    -0.215166   
N19      N      0.573180000000     0.947000000000     0.202190000000    -0.176997   
N20      N      0.616370000000     0.903920000000     0.177140000000    -0.215797   
N21      N      0.012940000000     0.534080000000     0.322370000000    -0.177712   
N22      N      0.011140000000     0.534140000000     0.389540000000    -0.216476   
N23      N      0.012920000000     0.482430000000     0.072450000000    -0.177528   
N24      N      0.011190000000     0.479930000000     0.139610000000    -0.21692    
N25      N      0.949130000000     0.570340000000     0.009890000000    -0.177279   
N26      N      0.903430000000     0.610650000000     0.035390000000    -0.21563    
N27      N      0.345160000000     0.147650000000     0.405560000000    -0.178431   
N28      N      0.344070000000     0.146500000000     0.472760000000    -0.217044   
N29      N      0.339630000000     0.197720000000     0.222730000000    -0.177997   
N30      N      0.343220000000     0.199410000000     0.155630000000    -0.217844   
N31      N      0.401760000000     0.109280000000     0.284820000000    -0.177578   
N32      N      0.445770000000     0.067180000000     0.259300000000    -0.215484   
N33      N      0.115080000000     0.402750000000     0.426870000000    -0.177348   
N34      N      0.072970000000     0.446760000000     0.452310000000    -0.215472   
N35      N      0.240460000000     0.281130000000     0.368870000000    -0.177586   
N36      N      0.281960000000     0.236210000000     0.343940000000    -0.215668   
N37      N      0.481430000000     0.479100000000     0.390600000000    -0.178083   
N38      N      0.479970000000     0.480200000000     0.323490000000    -0.21764    
N39      N      0.535080000000     0.531470000000     0.140720000000    -0.177551   
N40      N      0.532510000000     0.532950000000     0.073600000000    -0.216808   
N41      N      0.869140000000     0.200830000000     0.473790000000    -0.177619   
N42      N      0.866620000000     0.201140000000     0.406640000000    -0.217026   
N43      N      0.815240000000     0.146740000000     0.223730000000    -0.178163   
N44      N      0.814270000000     0.149270000000     0.156610000000    -0.217644   
N45      N      0.152550000000     0.345440000000     0.306390000000    -0.177653   
N46      N      0.150300000000     0.344200000000     0.239200000000    -0.217303   
N47      N      0.202990000000     0.343390000000     0.056330000000    -0.177415   
N48      N      0.202710000000     0.339800000000     0.989240000000    -0.217368   
N49      N      0.052180000000     0.284510000000     0.119080000000    -0.178155   
N50      N      0.965710000000     0.241720000000     0.094380000000    -0.21552    
N51      N      0.385000000000     0.444020000000     0.203000000000    -0.177191   
N52      N      0.299040000000     0.402850000000     0.177390000000    -0.215337   
N53      N      0.537710000000     0.008880000000     0.388970000000    -0.176692   
N54      N      0.536300000000     0.006130000000     0.321860000000    -0.216901   
N55      N      0.482000000000     0.003200000000     0.071780000000    -0.177821   
N56      N      0.482630000000     0.005390000000     0.138970000000    -0.216892   
N57      N      0.718910000000     0.110520000000     0.035990000000    -0.177556   
N58      N      0.632890000000     0.067770000000     0.010400000000    -0.215311   
N59      N      0.203640000000     0.864950000000     0.237970000000    -0.178333   
N60      N      0.204680000000     0.862750000000     0.305070000000    -0.217754   
N61      N      0.149080000000     0.813570000000     0.987910000000    -0.17808    
N62      N      0.150640000000     0.813280000000     0.055070000000    -0.217125   
N63      N      0.299860000000     0.901210000000     0.425690000000    -0.176946   
N64      N      0.386030000000     0.943790000000     0.451080000000    -0.214974   
N65      N      0.813950000000     0.667540000000     0.407110000000    -0.178076   
N66      N      0.813410000000     0.670550000000     0.474220000000    -0.217576   
N67      N      0.867290000000     0.669890000000     0.224110000000    -0.177994   
N68      N      0.864560000000     0.666450000000     0.157020000000    -0.217397   
N69      N      0.631630000000     0.567890000000     0.261580000000    -0.177298   
N70      N      0.717660000000     0.608920000000     0.287140000000    -0.21558    
N71      N      0.965720000000     0.729720000000     0.343410000000    -0.177357   
N72      N      0.052810000000     0.774570000000     0.367170000000    -0.215433   
N73      N      0.730270000000     0.963170000000     0.869580000000    -0.177687   
N74      N      0.773160000000     0.049460000000     0.844400000000    -0.21574    
N75      N      0.951650000000     0.382510000000     0.760420000000    -0.177548   
N76      N      0.908220000000     0.296370000000     0.785800000000    -0.215343   
N77      N      0.112910000000     0.714990000000     0.675230000000    -0.177319   
N78      N      0.071110000000     0.628960000000     0.700860000000    -0.215408   
N79      N      0.570580000000     0.629750000000     0.953160000000    -0.176488   
N80      N      0.612020000000     0.715850000000     0.927550000000    -0.215138   
N81      N      0.242370000000     0.962280000000     0.618140000000    -0.178075   
N82      N      0.286320000000     0.048710000000     0.593270000000    -0.215988   
N83      N      0.400270000000     0.295870000000     0.535550000000    -0.177139   
N84      N      0.441950000000     0.382210000000     0.510520000000    -0.215741   
N85      N      0.674420000000     0.812270000000     0.739970000000    -0.17807    
N86      N      0.670560000000     0.811870000000     0.807040000000    -0.217963   
N87      N      0.670540000000     0.862730000000     0.557090000000    -0.178123   
N88      N      0.671560000000     0.864850000000     0.489940000000    -0.216828   
N89      N      0.730260000000     0.770560000000     0.619730000000    -0.177465   
N90      N      0.772390000000     0.726160000000     0.595060000000    -0.215134   
N91      N      0.573180000000     0.947010000000     0.702190000000    -0.177147   
N92      N      0.616380000000     0.903920000000     0.677140000000    -0.21585    
N93      N      0.012940000000     0.534080000000     0.822370000000    -0.177721   
N94      N      0.011140000000     0.534140000000     0.889540000000    -0.216473   
N95      N      0.012920000000     0.482430000000     0.572450000000    -0.17753    
N96      N      0.011190000000     0.479930000000     0.639610000000    -0.216979   
N97      N      0.949130000000     0.570340000000     0.509890000000    -0.177343   
N98      N      0.903430000000     0.610650000000     0.535390000000    -0.215599   
N99      N      0.345160000000     0.147650000000     0.905560000000    -0.178414   
N100     N      0.344070000000     0.146500000000     0.972760000000    -0.217097   
N101     N      0.339630000000     0.197720000000     0.722730000000    -0.178057   
N102     N      0.343220000000     0.199410000000     0.655630000000    -0.217847   
N103     N      0.401760000000     0.109280000000     0.784820000000    -0.177567   
N104     N      0.445770000000     0.067180000000     0.759300000000    -0.215487   
N105     N      0.115080000000     0.402750000000     0.926860000000    -0.177348   
N106     N      0.072970000000     0.446760000000     0.952310000000    -0.215476   
N107     N      0.240470000000     0.281130000000     0.868870000000    -0.17752    
N108     N      0.281960000000     0.236210000000     0.843940000000    -0.215745   
N109     N      0.481430000000     0.479100000000     0.890600000000    -0.178138   
N110     N      0.479970000000     0.480200000000     0.823490000000    -0.217644   
N111     N      0.535080000000     0.531470000000     0.640720000000    -0.177534   
N112     N      0.532500000000     0.532950000000     0.573600000000    -0.216846   
N113     N      0.869140000000     0.200830000000     0.973790000000    -0.177664   
N114     N      0.866610000000     0.201140000000     0.906640000000    -0.217123   
N115     N      0.815240000000     0.146740000000     0.723730000000    -0.178156   
N116     N      0.814270000000     0.149270000000     0.656610000000    -0.217647   
N117     N      0.152550000000     0.345440000000     0.806380000000    -0.177562   
N118     N      0.150310000000     0.344200000000     0.739200000000    -0.217257   
N119     N      0.202990000000     0.343390000000     0.556330000000    -0.17742    
N120     N      0.202700000000     0.339800000000     0.489240000000    -0.217282   
N121     N      0.052180000000     0.284510000000     0.619080000000    -0.178151   
N122     N      0.965710000000     0.241720000000     0.594380000000    -0.215515   
N123     N      0.385000000000     0.444020000000     0.703000000000    -0.177236   
N124     N      0.299040000000     0.402850000000     0.677390000000    -0.215249   
N125     N      0.537710000000     0.008890000000     0.888970000000    -0.176731   
N126     N      0.536310000000     0.006130000000     0.821870000000    -0.216771   
N127     N      0.482010000000     0.003200000000     0.571780000000    -0.177832   
N128     N      0.482640000000     0.005390000000     0.638980000000    -0.216974   
N129     N      0.718910000000     0.110520000000     0.535990000000    -0.177643   
N130     N      0.632890000000     0.067760000000     0.510400000000    -0.215317   
N131     N      0.203630000000     0.864950000000     0.737970000000    -0.178418   
N132     N      0.204680000000     0.862750000000     0.805070000000    -0.217731   
N133     N      0.149080000000     0.813570000000     0.487910000000    -0.178036   
N134     N      0.150640000000     0.813280000000     0.555070000000    -0.217146   
N135     N      0.299860000000     0.901210000000     0.925690000000    -0.176956   
N136     N      0.386040000000     0.943790000000     0.951080000000    -0.215011   
N137     N      0.813950000000     0.667540000000     0.907110000000    -0.178125   
N138     N      0.813400000000     0.670550000000     0.974220000000    -0.217593   
N139     N      0.867290000000     0.669890000000     0.724110000000    -0.177983   
N140     N      0.864550000000     0.666450000000     0.657020000000    -0.217393   
N141     N      0.631630000000     0.567890000000     0.761580000000    -0.177254   
N142     N      0.717660000000     0.608920000000     0.787140000000    -0.215586   
N143     N      0.965720000000     0.729720000000     0.843420000000    -0.177364   
N144     N      0.052810000000     0.774570000000     0.867170000000    -0.215473   
O1       O      0.854970000000     0.637780000000     0.274300000000    -0.550747   
O2       O      0.823010000000     0.634070000000     0.362340000000    -0.553977   
O3       O      0.779160000000     0.607330000000     0.306080000000    -0.544944   
O4       O      0.900620000000     0.665510000000     0.330700000000    -0.549546   
O5       O      0.903990000000     0.730950000000     0.325300000000    -0.557076   
O6       O      0.782670000000     0.672710000000     0.300710000000    -0.553977   
O7       O      0.827950000000     0.700290000000     0.357080000000    -0.55406    
O8       O      0.860080000000     0.704080000000     0.269110000000    -0.554432   
O9       O      0.195600000000     0.820890000000     0.350300000000    -0.549256   
O10      O      0.162260000000     0.793370000000     0.438180000000    -0.553623   
O11      O      0.117500000000     0.775310000000     0.381370000000    -0.551125   
O12      O      0.238640000000     0.838210000000     0.406930000000    -0.551181   
O13      O      0.235300000000     0.900380000000     0.411600000000    -0.551499   
O14      O      0.114440000000     0.837520000000     0.385950000000    -0.545782   
O15      O      0.157330000000     0.854750000000     0.442590000000    -0.553097   
O16      O      0.190930000000     0.882350000000     0.354820000000    -0.559175   
O17      O      0.524790000000     0.976000000000     0.438920000000    -0.548672   
O18      O      0.490900000000     0.970210000000     0.026710000000    -0.551794   
O19      O      0.448180000000     0.943540000000     0.470020000000    -0.545361   
O20      O      0.569060000000     0.003420000000     0.995820000000    -0.552321   
O21      O      0.571230000000     0.068200000000     0.990620000000    -0.544554   
O22      O      0.450210000000     0.008280000000     0.465090000000    -0.552285   
O23      O      0.494900000000     0.036060000000     0.021850000000    -0.553407   
O24      O      0.528300000000     0.041610000000     0.434000000000    -0.550524   
O25      O      0.156600000000     0.309000000000     0.194430000000    -0.556143   
O26      O      0.188990000000     0.311360000000     0.106620000000    -0.552805   
O27      O      0.234130000000     0.339240000000     0.163220000000    -0.551773   
O28      O      0.112920000000     0.281960000000     0.138020000000    -0.556378   
O29      O      0.117530000000     0.347910000000     0.132170000000    -0.55339    
O30      O      0.238480000000     0.404930000000     0.157200000000    -0.54257    
O31      O      0.195030000000     0.378000000000     0.100830000000    -0.552243   
O32      O      0.162710000000     0.375600000000     0.188620000000    -0.547861   
O33      O      0.862080000000     0.159790000000     0.018990000000    -0.553883   
O34      O      0.828820000000     0.130880000000     0.106690000000    -0.558829   
O35      O      0.784200000000     0.112460000000     0.049850000000    -0.549307   
O36      O      0.905200000000     0.177770000000     0.075690000000    -0.558277   
O37      O      0.899970000000     0.238790000000     0.080360000000    -0.543923   
O38      O      0.779250000000     0.173660000000     0.055170000000    -0.557605   
O39      O      0.822460000000     0.191360000000     0.111660000000    -0.542011   
O40      O      0.855210000000     0.220010000000     0.023720000000    -0.551334   
O41      O      0.527070000000     0.489550000000     0.185670000000    -0.551967   
O42      O      0.493830000000     0.461030000000     0.273570000000    -0.557453   
O43      O      0.449210000000     0.443950000000     0.216830000000    -0.551382   
O44      O      0.570190000000     0.505720000000     0.242270000000    -0.556108   
O45      O      0.567510000000     0.568160000000     0.247630000000    -0.549118   
O46      O      0.446490000000     0.506390000000     0.222080000000    -0.554209   
O47      O      0.489400000000     0.522600000000     0.278610000000    -0.541008   
O48      O      0.522850000000     0.551230000000     0.190900000000    -0.554103   
O49      O      0.194600000000     0.378000000000     0.351450000000    -0.551995   
O50      O      0.222600000000     0.372450000000     0.439250000000    -0.557942   
O51      O      0.240190000000     0.345400000000     0.382470000000    -0.55044    
O52      O      0.177810000000     0.404120000000     0.408050000000    -0.555127   
O53      O      0.115520000000     0.338790000000     0.412810000000    -0.549561   
O54      O      0.177920000000     0.280130000000     0.387580000000    -0.555913   
O55      O      0.161050000000     0.306450000000     0.444080000000    -0.540634   
O56      O      0.133230000000     0.311780000000     0.356110000000    -0.552645   
O57      O      0.377900000000     0.189220000000     0.360370000000    -0.553507   
O58      O      0.372220000000     0.217490000000     0.272720000000    -0.555341   
O59      O      0.345660000000     0.235220000000     0.329610000000    -0.553984   
O60      O      0.403470000000     0.172170000000     0.303660000000    -0.556351   
O61      O      0.338020000000     0.109990000000     0.299130000000    -0.550503   
O62      O      0.280280000000     0.173350000000     0.324470000000    -0.544968   
O63      O      0.306170000000     0.155990000000     0.267860000000    -0.551057   
O64      O      0.311410000000     0.128180000000     0.355870000000    -0.553754   
O65      O      0.042130000000     0.554210000000     0.440120000000    -0.542074   
O66      O      0.046150000000     0.525000000000     0.027770000000    -0.554241   
O67      O      0.073500000000     0.509280000000     0.471360000000    -0.545759   
O68      O      0.013810000000     0.570750000000     0.996710000000    -0.549629   
O69      O      0.948870000000     0.508390000000     0.990590000000    -0.556898   
O70      O      0.008660000000     0.446840000000     0.466040000000    -0.551726   
O71      O      0.980080000000     0.463620000000     0.022440000000    -0.55217    
O72      O      0.976660000000     0.492320000000     0.434370000000    -0.555459   
O73      O      0.704610000000     0.881180000000     0.106690000000    -0.55474    
O74      O      0.708860000000     0.853050000000     0.194730000000    -0.552286   
O75      O      0.733900000000     0.834460000000     0.138270000000    -0.558506   
O76      O      0.679010000000     0.900560000000     0.163250000000    -0.540538   
O77      O      0.612610000000     0.839750000000     0.158750000000    -0.558882   
O78      O      0.667460000000     0.773580000000     0.133310000000    -0.54828    
O79      O      0.641830000000     0.792820000000     0.189980000000    -0.555172   
O80      O      0.637290000000     0.821250000000     0.102230000000    -0.55299    
O81      O      0.882940000000     0.699540000000     0.107150000000    -0.559521   
O82      O      0.854060000000     0.704480000000     0.019560000000    -0.551658   
O83      O      0.836140000000     0.729320000000     0.076340000000    -0.557147   
O84      O      0.901320000000     0.673680000000     0.050200000000    -0.552966   
O85      O      0.840260000000     0.607630000000     0.055330000000    -0.545148   
O86      O      0.775060000000     0.663160000000     0.080920000000    -0.541688   
O87      O      0.793940000000     0.637390000000     0.024110000000    -0.555277   
O88      O      0.822470000000     0.632740000000     0.112030000000    -0.539075   
O89      O      0.554240000000     0.038680000000     0.271700000000    -0.553545   
O90      O      0.524650000000     0.040720000000     0.183600000000    -0.555744   
O91      O      0.508250000000     0.068370000000     0.239770000000    -0.548796   
O92      O      0.571650000000     0.010570000000     0.215420000000    -0.552701   
O93      O      0.510030000000     0.944850000000     0.221030000000    -0.549177   
O94      O      0.446770000000     0.003000000000     0.246170000000    -0.550868   
O95      O      0.463680000000     0.974610000000     0.189690000000    -0.547969   
O96      O      0.493740000000     0.972030000000     0.277330000000    -0.54067    
O97      O      0.308800000000     0.152670000000     0.017570000000    -0.556185   
O98      O      0.310800000000     0.184590000000     0.105470000000    -0.558278   
O99      O      0.337580000000     0.229950000000     0.048980000000    -0.550314   
O100     O      0.282760000000     0.108830000000     0.073970000000    -0.560689   
O101     O      0.349190000000     0.114850000000     0.079760000000    -0.542893   
O102     O      0.404110000000     0.235880000000     0.054570000000    -0.551608   
O103     O      0.378130000000     0.192340000000     0.110960000000    -0.542942   
O104     O      0.375890000000     0.159980000000     0.023230000000    -0.545129   
O105     O      0.490690000000     0.525200000000     0.028600000000    -0.548188   
O106     O      0.462310000000     0.492910000000     0.440570000000    -0.554162   
O107     O      0.444000000000     0.447740000000     0.997040000000    -0.542134   
O108     O      0.507950000000     0.568780000000     0.472260000000    -0.555144   
O109     O      0.569680000000     0.564840000000     0.466890000000    -0.54596    
O110     O      0.505470000000     0.443410000000     0.992090000000    -0.558068   
O111     O      0.523050000000     0.486990000000     0.435630000000    -0.553736   
O112     O      0.551530000000     0.519580000000     0.023510000000    -0.555324   
O113     O      0.131900000000     0.825590000000     0.105660000000    -0.544667   
O114     O      0.161930000000     0.858000000000     0.193280000000    -0.556042   
O115     O      0.178860000000     0.901630000000     0.136920000000    -0.555585   
O116     O      0.114360000000     0.780310000000     0.162150000000    -0.548996   
O117     O      0.175550000000     0.775630000000     0.155770000000    -0.557966   
O118     O      0.240130000000     0.896860000000     0.131500000000    -0.552458   
O119     O      0.222060000000     0.851130000000     0.187750000000    -0.552924   
O120     O      0.192570000000     0.819830000000     0.099670000000    -0.556055   
O121     O      0.976390000000     0.486750000000     0.184480000000    -0.554424   
O122     O      0.979910000000     0.519650000000     0.272390000000    -0.552935   
O123     O      0.007390000000     0.564520000000     0.215600000000    -0.551199   
O124     O      0.949610000000     0.443360000000     0.241080000000    -0.555528   
O125     O      0.015280000000     0.447410000000     0.246840000000    -0.55296    
O126     O      0.072790000000     0.568130000000     0.220980000000    -0.542936   
O127     O      0.046480000000     0.525460000000     0.277610000000    -0.553742   
O128     O      0.042540000000     0.491840000000     0.190120000000    -0.549477   
O129     O      0.825200000000     0.193550000000     0.361450000000    -0.548395   
O130     O      0.796320000000     0.160570000000     0.273700000000    -0.555026   
O131     O      0.776870000000     0.115780000000     0.330480000000    -0.53884    
O132     O      0.843970000000     0.236640000000     0.304780000000    -0.55652    
O133     O      0.904270000000     0.230190000000     0.300170000000    -0.542767   
O134     O      0.837210000000     0.109430000000     0.325580000000    -0.561617   
O135     O      0.855990000000     0.152810000000     0.268950000000    -0.554695   
O136     O      0.884670000000     0.185490000000     0.356890000000    -0.555324   
O137     O      0.639890000000     0.852860000000     0.439520000000    -0.541928   
O138     O      0.636540000000     0.820270000000     0.351760000000    -0.552505   
O139     O      0.610170000000     0.776930000000     0.408140000000    -0.545241   
O140     O      0.666950000000     0.897910000000     0.383000000000    -0.552368   
O141     O      0.732830000000     0.902360000000     0.388520000000    -0.556182   
O142     O      0.675730000000     0.780980000000     0.413680000000    -0.549888   
O143     O      0.703090000000     0.826170000000     0.357120000000    -0.558431   
O144     O      0.706350000000     0.858590000000     0.444950000000    -0.556062   
O145     O      0.702820000000     0.046730000000     0.343500000000    -0.28358    
O146     O      0.978340000000     0.298530000000     0.286600000000    -0.283987   
O147     O      0.140750000000     0.630310000000     0.196190000000    -0.284237   
O148     O      0.541150000000     0.712360000000     0.429390000000    -0.2852     
O149     O      0.353900000000     0.045830000000     0.093420000000    -0.284886   
O150     O      0.370820000000     0.377840000000     0.009260000000    -0.283676   
O151     O      0.591420000000     0.766840000000     0.303730000000    -0.290332   
O152     O      0.591880000000     0.824400000000     0.990450000000    -0.285284   
O153     O      0.701630000000     0.658940000000     0.094610000000    -0.281336   
O154     O      0.683890000000     0.974380000000     0.175820000000    -0.285042   
O155     O      0.090820000000     0.574080000000     0.389490000000    -0.285856   
O156     O      0.090870000000     0.519580000000     0.139440000000    -0.290898   
O157     O      0.836100000000     0.540070000000     0.031070000000    -0.283133   
O158     O      0.423730000000     0.186740000000     0.472220000000    -0.287798   
O159     O      0.422110000000     0.245960000000     0.158760000000    -0.287266   
O160     O      0.512960000000     0.138290000000     0.259320000000    -0.286078   
O161     O      0.143580000000     0.514400000000     0.951100000000    -0.285821   
O162     O      0.211590000000     0.168510000000     0.347240000000    -0.285817   
O163     O      0.435940000000     0.515410000000     0.325980000000    -0.285118   
O164     O      0.498910000000     0.578470000000     0.077040000000    -0.288871   
O165     O      0.832840000000     0.246590000000     0.409350000000    -0.289991   
O166     O      0.770360000000     0.184580000000     0.159640000000    -0.286925   
O167     O      0.191350000000     0.423870000000     0.239580000000    -0.29067    
O168     O      0.166930000000     0.260580000000     0.992430000000    -0.287209   
O169     O      0.968870000000     0.312360000000     0.093490000000    -0.283696   
O170     O      0.301900000000     0.473370000000     0.180560000000    -0.284515   
O171     O      0.503880000000     0.927160000000     0.324490000000    -0.283226   
O172     O      0.443420000000     0.925690000000     0.139110000000    -0.28742    
O173     O      0.633860000000     0.137340000000     0.513930000000    -0.284323   
O174     O      0.247820000000     0.826520000000     0.302100000000    -0.288221   
O175     O      0.112390000000     0.854750000000     0.055010000000    -0.288115   
O176     O      0.383290000000     0.873230000000     0.450130000000    -0.282098   
O177     O      0.845820000000     0.749570000000     0.471200000000    -0.290771   
O178     O      0.829460000000     0.587250000000     0.160010000000    -0.283412   
O179     O      0.713480000000     0.537710000000     0.286030000000    -0.284871   
O180     O      0.050710000000     0.842570000000     0.363200000000    -0.285445   
O181     O      0.854970000000     0.637780000000     0.774300000000    -0.550768   
O182     O      0.823010000000     0.634080000000     0.862340000000    -0.554163   
O183     O      0.779160000000     0.607330000000     0.806090000000    -0.544991   
O184     O      0.900620000000     0.665510000000     0.830700000000    -0.549571   
O185     O      0.903990000000     0.730950000000     0.825300000000    -0.557085   
O186     O      0.782670000000     0.672710000000     0.800710000000    -0.553999   
O187     O      0.827950000000     0.700290000000     0.857080000000    -0.554189   
O188     O      0.860070000000     0.704080000000     0.769110000000    -0.55442    
O189     O      0.195600000000     0.820890000000     0.850300000000    -0.549228   
O190     O      0.162260000000     0.793370000000     0.938180000000    -0.553527   
O191     O      0.117500000000     0.775320000000     0.881370000000    -0.551253   
O192     O      0.238640000000     0.838210000000     0.906930000000    -0.551213   
O193     O      0.235310000000     0.900380000000     0.911600000000    -0.551474   
O194     O      0.114440000000     0.837520000000     0.885950000000    -0.545779   
O195     O      0.157330000000     0.854760000000     0.942590000000    -0.552904   
O196     O      0.190930000000     0.882350000000     0.854820000000    -0.55912    
O197     O      0.524780000000     0.976000000000     0.938920000000    -0.548887   
O198     O      0.490900000000     0.970210000000     0.526710000000    -0.551956   
O199     O      0.448180000000     0.943540000000     0.970020000000    -0.545462   
O200     O      0.569060000000     0.003410000000     0.495820000000    -0.552145   
O201     O      0.571230000000     0.068200000000     0.490620000000    -0.544463   
O202     O      0.450210000000     0.008280000000     0.965090000000    -0.552361   
O203     O      0.494900000000     0.036060000000     0.521850000000    -0.553424   
O204     O      0.528300000000     0.041610000000     0.934000000000    -0.550689   
O205     O      0.156600000000     0.309000000000     0.694430000000    -0.556072   
O206     O      0.188990000000     0.311360000000     0.606620000000    -0.552719   
O207     O      0.234130000000     0.339240000000     0.663220000000    -0.551779   
O208     O      0.112920000000     0.281960000000     0.638020000000    -0.556371   
O209     O      0.117530000000     0.347910000000     0.632170000000    -0.553386   
O210     O      0.238480000000     0.404930000000     0.657200000000    -0.542608   
O211     O      0.195030000000     0.378000000000     0.600830000000    -0.552338   
O212     O      0.162710000000     0.375610000000     0.688620000000    -0.547682   
O213     O      0.862080000000     0.159790000000     0.518990000000    -0.553811   
O214     O      0.828820000000     0.130880000000     0.606690000000    -0.558729   
O215     O      0.784200000000     0.112460000000     0.549850000000    -0.549157   
O216     O      0.905210000000     0.177770000000     0.575690000000    -0.558094   
O217     O      0.899970000000     0.238790000000     0.580360000000    -0.543914   
O218     O      0.779250000000     0.173660000000     0.555160000000    -0.557546   
O219     O      0.822460000000     0.191360000000     0.611660000000    -0.542061   
O220     O      0.855200000000     0.220010000000     0.523720000000    -0.55125    
O221     O      0.527070000000     0.489550000000     0.685670000000    -0.552069   
O222     O      0.493830000000     0.461030000000     0.773570000000    -0.557462   
O223     O      0.449210000000     0.443950000000     0.716830000000    -0.551377   
O224     O      0.570200000000     0.505720000000     0.742270000000    -0.555963   
O225     O      0.567510000000     0.568160000000     0.747630000000    -0.549143   
O226     O      0.446490000000     0.506390000000     0.722080000000    -0.554245   
O227     O      0.489400000000     0.522600000000     0.778610000000    -0.54103    
O228     O      0.522850000000     0.551230000000     0.690900000000    -0.554071   
O229     O      0.194600000000     0.378000000000     0.851450000000    -0.552      
O230     O      0.222600000000     0.372450000000     0.939250000000    -0.558001   
O231     O      0.240190000000     0.345400000000     0.882470000000    -0.550465   
O232     O      0.177820000000     0.404120000000     0.908050000000    -0.555315   
O233     O      0.115520000000     0.338800000000     0.912810000000    -0.549534   
O234     O      0.177920000000     0.280130000000     0.887580000000    -0.555852   
O235     O      0.161050000000     0.306450000000     0.944080000000    -0.540553   
O236     O      0.133230000000     0.311780000000     0.856110000000    -0.552577   
O237     O      0.377900000000     0.189230000000     0.860370000000    -0.553513   
O238     O      0.372220000000     0.217490000000     0.772720000000    -0.5555     
O239     O      0.345660000000     0.235220000000     0.829610000000    -0.554121   
O240     O      0.403480000000     0.172180000000     0.803660000000    -0.556107   
O241     O      0.338020000000     0.109990000000     0.799130000000    -0.550327   
O242     O      0.280290000000     0.173350000000     0.824470000000    -0.545037   
O243     O      0.306180000000     0.156000000000     0.767850000000    -0.551114   
O244     O      0.311410000000     0.128180000000     0.855870000000    -0.553681   
O245     O      0.042130000000     0.554210000000     0.940120000000    -0.542063   
O246     O      0.046150000000     0.525000000000     0.527770000000    -0.554292   
O247     O      0.073500000000     0.509280000000     0.971360000000    -0.545767   
O248     O      0.013810000000     0.570750000000     0.496710000000    -0.549629   
O249     O      0.948870000000     0.508390000000     0.490590000000    -0.556896   
O250     O      0.008660000000     0.446840000000     0.966040000000    -0.551722   
O251     O      0.980080000000     0.463620000000     0.522440000000    -0.552222   
O252     O      0.976660000000     0.492320000000     0.934370000000    -0.555448   
O253     O      0.704610000000     0.881180000000     0.606690000000    -0.554801   
O254     O      0.708860000000     0.853060000000     0.694730000000    -0.552249   
O255     O      0.733900000000     0.834460000000     0.638270000000    -0.558613   
O256     O      0.679020000000     0.900560000000     0.663250000000    -0.540578   
O257     O      0.612620000000     0.839750000000     0.658750000000    -0.55919    
O258     O      0.667460000000     0.773590000000     0.633310000000    -0.548348   
O259     O      0.641830000000     0.792820000000     0.689980000000    -0.555153   
O260     O      0.637300000000     0.821250000000     0.602230000000    -0.553192   
O261     O      0.882940000000     0.699540000000     0.607150000000    -0.559501   
O262     O      0.854050000000     0.704480000000     0.519560000000    -0.551743   
O263     O      0.836140000000     0.729320000000     0.576340000000    -0.55714    
O264     O      0.901320000000     0.673680000000     0.550200000000    -0.552961   
O265     O      0.840260000000     0.607630000000     0.555340000000    -0.54527    
O266     O      0.775060000000     0.663160000000     0.580920000000    -0.541582   
O267     O      0.793940000000     0.637390000000     0.524110000000    -0.555269   
O268     O      0.822470000000     0.632740000000     0.612030000000    -0.539093   
O269     O      0.554250000000     0.038680000000     0.771700000000    -0.553516   
O270     O      0.524650000000     0.040720000000     0.683600000000    -0.555785   
O271     O      0.508260000000     0.068370000000     0.739760000000    -0.548843   
O272     O      0.571650000000     0.010570000000     0.715420000000    -0.55274    
O273     O      0.510030000000     0.944860000000     0.721030000000    -0.549308   
O274     O      0.446780000000     0.003000000000     0.746170000000    -0.551006   
O275     O      0.463680000000     0.974610000000     0.689690000000    -0.54805    
O276     O      0.493740000000     0.972030000000     0.777330000000    -0.540626   
O277     O      0.308800000000     0.152670000000     0.517570000000    -0.556244   
O278     O      0.310800000000     0.184590000000     0.605470000000    -0.558298   
O279     O      0.337580000000     0.229950000000     0.548980000000    -0.550273   
O280     O      0.282760000000     0.108830000000     0.573970000000    -0.560685   
O281     O      0.349190000000     0.114850000000     0.579760000000    -0.542939   
O282     O      0.404110000000     0.235870000000     0.554570000000    -0.551649   
O283     O      0.378130000000     0.192340000000     0.610960000000    -0.542928   
O284     O      0.375880000000     0.159980000000     0.523230000000    -0.545331   
O285     O      0.490690000000     0.525200000000     0.528600000000    -0.548239   
O286     O      0.462310000000     0.492910000000     0.940570000000    -0.554225   
O287     O      0.444000000000     0.447740000000     0.497040000000    -0.542118   
O288     O      0.507950000000     0.568780000000     0.972260000000    -0.555149   
O289     O      0.569680000000     0.564840000000     0.966890000000    -0.54595    
O290     O      0.505470000000     0.443410000000     0.492080000000    -0.558086   
O291     O      0.523040000000     0.486990000000     0.935630000000    -0.553888   
O292     O      0.551530000000     0.519580000000     0.523510000000    -0.555404   
O293     O      0.131900000000     0.825590000000     0.605660000000    -0.544595   
O294     O      0.161930000000     0.857990000000     0.693280000000    -0.556282   
O295     O      0.178850000000     0.901630000000     0.636920000000    -0.555365   
O296     O      0.114360000000     0.780310000000     0.662160000000    -0.548955   
O297     O      0.175550000000     0.775630000000     0.655780000000    -0.558037   
O298     O      0.240130000000     0.896850000000     0.631500000000    -0.552431   
O299     O      0.222050000000     0.851130000000     0.687750000000    -0.553115   
O300     O      0.192570000000     0.819830000000     0.599680000000    -0.55629    
O301     O      0.976390000000     0.486750000000     0.684480000000    -0.554501   
O302     O      0.979910000000     0.519650000000     0.772390000000    -0.552942   
O303     O      0.007390000000     0.564520000000     0.715600000000    -0.551169   
O304     O      0.949600000000     0.443350000000     0.741080000000    -0.555342   
O305     O      0.015280000000     0.447400000000     0.746840000000    -0.552743   
O306     O      0.072790000000     0.568130000000     0.720980000000    -0.542863   
O307     O      0.046480000000     0.525460000000     0.777610000000    -0.553619   
O308     O      0.042530000000     0.491840000000     0.690110000000    -0.549522   
O309     O      0.825210000000     0.193550000000     0.861450000000    -0.548605   
O310     O      0.796320000000     0.160570000000     0.773700000000    -0.554978   
O311     O      0.776880000000     0.115780000000     0.830480000000    -0.539036   
O312     O      0.843970000000     0.236640000000     0.804780000000    -0.5566     
O313     O      0.904260000000     0.230190000000     0.800170000000    -0.542922   
O314     O      0.837210000000     0.109430000000     0.825580000000    -0.561664   
O315     O      0.855990000000     0.152810000000     0.768950000000    -0.554707   
O316     O      0.884670000000     0.185490000000     0.856900000000    -0.555319   
O317     O      0.639890000000     0.852860000000     0.939520000000    -0.542072   
O318     O      0.636540000000     0.820260000000     0.851750000000    -0.552359   
O319     O      0.610170000000     0.776930000000     0.908140000000    -0.545279   
O320     O      0.666950000000     0.897900000000     0.883000000000    -0.552444   
O321     O      0.732830000000     0.902370000000     0.888530000000    -0.556107   
O322     O      0.675730000000     0.780970000000     0.913680000000    -0.549742   
O323     O      0.703090000000     0.826180000000     0.857120000000    -0.558632   
O324     O      0.706350000000     0.858590000000     0.944950000000    -0.556053   
O325     O      0.702820000000     0.046730000000     0.843500000000    -0.283592   
O326     O      0.978340000000     0.298530000000     0.786600000000    -0.28397    
O327     O      0.140750000000     0.630310000000     0.696190000000    -0.284366   
O328     O      0.541150000000     0.712360000000     0.929390000000    -0.285207   
O329     O      0.353900000000     0.045830000000     0.593420000000    -0.284882   
O330     O      0.370820000000     0.377840000000     0.509250000000    -0.283883   
O331     O      0.591420000000     0.766830000000     0.803730000000    -0.290189   
O332     O      0.591880000000     0.824410000000     0.490450000000    -0.285077   
O333     O      0.701630000000     0.658940000000     0.594610000000    -0.281339   
O334     O      0.683890000000     0.974390000000     0.675820000000    -0.285093   
O335     O      0.090820000000     0.574080000000     0.889490000000    -0.285855   
O336     O      0.090870000000     0.519580000000     0.639440000000    -0.290905   
O337     O      0.836100000000     0.540070000000     0.531070000000    -0.283073   
O338     O      0.423730000000     0.186740000000     0.972220000000    -0.28801    
O339     O      0.422110000000     0.245960000000     0.658760000000    -0.287139   
O340     O      0.512960000000     0.138290000000     0.759320000000    -0.2861     
O341     O      0.143570000000     0.514400000000     0.451100000000    -0.285765   
O342     O      0.211590000000     0.168510000000     0.847240000000    -0.285809   
O343     O      0.435940000000     0.515410000000     0.825980000000    -0.285125   
O344     O      0.498910000000     0.578470000000     0.577040000000    -0.289002   
O345     O      0.832850000000     0.246590000000     0.909350000000    -0.289969   
O346     O      0.770360000000     0.184580000000     0.659640000000    -0.28693    
O347     O      0.191350000000     0.423870000000     0.739580000000    -0.290568   
O348     O      0.166930000000     0.260580000000     0.492430000000    -0.287265   
O349     O      0.968870000000     0.312360000000     0.593490000000    -0.283643   
O350     O      0.301900000000     0.473380000000     0.680560000000    -0.284455   
O351     O      0.503880000000     0.927160000000     0.824490000000    -0.283089   
O352     O      0.443420000000     0.925690000000     0.639110000000    -0.28743    
O353     O      0.633850000000     0.137340000000     0.013930000000    -0.284273   
O354     O      0.247820000000     0.826530000000     0.802100000000    -0.288085   
O355     O      0.112390000000     0.854740000000     0.555010000000    -0.28829    
O356     O      0.383290000000     0.873230000000     0.950130000000    -0.282043   
O357     O      0.845820000000     0.749570000000     0.971200000000    -0.290808   
O358     O      0.829460000000     0.587240000000     0.660010000000    -0.28343    
O359     O      0.713480000000     0.537710000000     0.786030000000    -0.284906   
O360     O      0.050710000000     0.842570000000     0.863200000000    -0.285436   
V1       V      0.839430000000     0.633640000000     0.318630000000     1.39751    
V2       V      0.843730000000     0.704550000000     0.312810000000     1.39937    
V3       V      0.178510000000     0.804400000000     0.393960000000     1.40109    
V4       V      0.174460000000     0.871240000000     0.398970000000     1.40572    
V5       V      0.508250000000     0.970780000000     0.483110000000     1.40707    
V6       V      0.511130000000     0.041050000000     0.977630000000     1.40099    
V7       V      0.173070000000     0.307810000000     0.150840000000     1.39249    
V8       V      0.178480000000     0.379140000000     0.144400000000     1.4116     
V9       V      0.845190000000     0.142740000000     0.062560000000     1.39207    
V10      V      0.839130000000     0.208420000000     0.067980000000     1.41196    
V11      V      0.510100000000     0.472540000000     0.229330000000     1.39515    
V12      V      0.506590000000     0.539630000000     0.235060000000     1.40887    
V13      V      0.211340000000     0.377520000000     0.395060000000     1.39826    
V14      V      0.144420000000     0.306750000000     0.400380000000     1.40429    
V15      V      0.377340000000     0.206030000000     0.316830000000     1.40162    
V16      V      0.306410000000     0.139370000000     0.311590000000     1.39729    
V17      V      0.046390000000     0.542350000000     0.484270000000     1.40937    
V18      V      0.976030000000     0.475270000000     0.978090000000     1.39925    
V19      V      0.709190000000     0.869760000000     0.150960000000     1.39965    
V20      V      0.637230000000     0.804360000000     0.145820000000     1.40504    
V21      V      0.871090000000     0.704340000000     0.063090000000     1.40056    
V22      V      0.805450000000     0.632670000000     0.068360000000     1.41168    
V23      V      0.542170000000     0.042140000000     0.227340000000     1.40322    
V24      V      0.476030000000     0.971090000000     0.233850000000     1.40821    
V25      V      0.307390000000     0.168870000000     0.061220000000     1.39513    
V26      V      0.379400000000     0.175870000000     0.067410000000     1.41062    
V27      V      0.473770000000     0.508720000000     0.984880000000     1.41031    
V28      V      0.539950000000     0.503650000000     0.479280000000     1.39389    
V29      V      0.144270000000     0.841450000000     0.149780000000     1.39979    
V30      V      0.210040000000     0.835760000000     0.143390000000     1.40188    
V31      V      0.975730000000     0.503500000000     0.228130000000     1.38918    
V32      V      0.046780000000     0.508230000000     0.234180000000     1.41782    
V33      V      0.808130000000     0.176760000000     0.317850000000     1.40479    
V34      V      0.872960000000     0.169300000000     0.312670000000     1.40047    
V35      V      0.635860000000     0.836950000000     0.395320000000     1.41659    
V36      V      0.707100000000     0.842130000000     0.401320000000     1.39419    
V37      V      0.839430000000     0.633640000000     0.818630000000     1.39777    
V38      V      0.843730000000     0.704560000000     0.812810000000     1.39952    
V39      V      0.178510000000     0.804410000000     0.893960000000     1.40107    
V40      V      0.174460000000     0.871240000000     0.898970000000     1.40534    
V41      V      0.508250000000     0.970780000000     0.983100000000     1.40729    
V42      V      0.511130000000     0.041040000000     0.477630000000     1.4009     
V43      V      0.173070000000     0.307810000000     0.650840000000     1.39242    
V44      V      0.178480000000     0.379140000000     0.644400000000     1.41157    
V45      V      0.845190000000     0.142740000000     0.562560000000     1.39177    
V46      V      0.839130000000     0.208420000000     0.567980000000     1.41196    
V47      V      0.510100000000     0.472540000000     0.729330000000     1.39514    
V48      V      0.506590000000     0.539640000000     0.735060000000     1.40896    
V49      V      0.211340000000     0.377520000000     0.895060000000     1.39855    
V50      V      0.144420000000     0.306750000000     0.900380000000     1.40399    
V51      V      0.377340000000     0.206040000000     0.816830000000     1.40179    
V52      V      0.306410000000     0.139370000000     0.811590000000     1.39722    
V53      V      0.046390000000     0.542350000000     0.984270000000     1.4093     
V54      V      0.976030000000     0.475270000000     0.478090000000     1.39932    
V55      V      0.709190000000     0.869760000000     0.650960000000     1.39976    
V56      V      0.637230000000     0.804370000000     0.645820000000     1.40545    
V57      V      0.871090000000     0.704340000000     0.563090000000     1.40041    
V58      V      0.805460000000     0.632670000000     0.568360000000     1.41173    
V59      V      0.542170000000     0.042140000000     0.727340000000     1.40339    
V60      V      0.476030000000     0.971090000000     0.733850000000     1.40856    
V61      V      0.307390000000     0.168870000000     0.561220000000     1.3951     
V62      V      0.379400000000     0.175870000000     0.567410000000     1.41089    
V63      V      0.473770000000     0.508720000000     0.484880000000     1.41032    
V64      V      0.539950000000     0.503650000000     0.979280000000     1.39376    
V65      V      0.144270000000     0.841450000000     0.649780000000     1.39968    
V66      V      0.210040000000     0.835760000000     0.643390000000     1.40235    
V67      V      0.975730000000     0.503500000000     0.728130000000     1.38908    
V68      V      0.046780000000     0.508230000000     0.734180000000     1.41737    
V69      V      0.808130000000     0.176760000000     0.817850000000     1.40494    
V70      V      0.872960000000     0.169300000000     0.812670000000     1.40034    
V71      V      0.635860000000     0.836950000000     0.895330000000     1.41652    
V72      V      0.707100000000     0.842130000000     0.901320000000     1.39395    


