data_structure

_audit_creation_method RASPA-1.0
_audit_creation_date 2023-6-5
_audit_author_name 'Poobodin Mano'

_cell_length_a    34.745
_cell_length_b    34.6762
_cell_length_c    41.4712
_cell_angle_alpha 89.9804
_cell_angle_beta  90.0197
_cell_angle_gamma 119.982
_cell_volume      43279.3

_symmetry_cell_setting          triclinic
_symmetry_space_group_name_Hall 'P 1'
_symmetry_space_group_name_H-M  'P 1'
_symmetry_Int_Tables_number     1

_symmetry_equiv_pos_as_xyz 'x,y,z'

loop_
_atom_site_label
_atom_site_type_symbol
_atom_site_fract_x
_atom_site_fract_y
_atom_site_fract_z
_atom_site_charge
C1       C      0.866040000000     0.683100000000     0.256750000000     0.476904   
C2       C      0.822670000000     0.675710000000     0.374370000000     0.476647   
C3       C      0.763550000000     0.639880000000     0.297490000000     0.476725   
C4       C      0.924790000000     0.718960000000     0.333820000000     0.502681   
C5       C      0.159900000000     0.834360000000     0.458780000000     0.483627   
C6       C      0.195030000000     0.862920000000     0.340320000000     0.51639    
C7       C      0.258750000000     0.889910000000     0.414910000000     0.507604   
C8       C      0.095500000000     0.806180000000     0.384070000000     0.47553    
C9       C      0.532130000000     0.010410000000     0.421480000000     0.478302   
C10      C      0.490110000000     0.004860000000     0.039180000000     0.478921   
C11      C      0.430750000000     0.971650000000     0.462640000000     0.478929   
C12      C      0.592060000000     0.044090000000     0.998080000000     0.503492   
C13      C      0.156870000000     0.337580000000     0.207110000000     0.479396   
C14      C      0.197870000000     0.341510000000     0.089240000000     0.477832   
C15      C      0.258430000000     0.376890000000     0.165550000000     0.504144   
C16      C      0.096690000000     0.302190000000     0.130840000000     0.479585   
C17      C      0.865450000000     0.191800000000     0.005480000000     0.512431   
C18      C      0.823920000000     0.154850000000     0.123280000000     0.477186   
C19      C      0.763630000000     0.129690000000     0.046920000000     0.475591   
C20      C      0.925310000000     0.216880000000     0.081790000000     0.509202   
C21      C      0.530990000000     0.526060000000     0.172360000000     0.506266   
C22      C      0.491110000000     0.487700000000     0.290170000000     0.506963   
C23      C      0.430120000000     0.463330000000     0.214140000000     0.478955   
C24      C      0.592060000000     0.550560000000     0.248480000000     0.50437    
C25      C      0.157190000000     0.342490000000     0.339300000000     0.513595   
C26      C      0.194020000000     0.336570000000     0.456990000000     0.509171   
C27      C      0.217400000000     0.300860000000     0.380220000000     0.480692   
C28      C      0.133310000000     0.378170000000     0.415780000000     0.510406   
C29      C      0.340000000000     0.152790000000     0.370090000000     0.514966   
C30      C      0.338270000000     0.190820000000     0.252280000000     0.509829   
C31      C      0.300630000000     0.214370000000     0.328360000000     0.505076   
C32      C      0.377960000000     0.129610000000     0.294440000000     0.486315   
C33      C      0.010480000000     0.528220000000     0.422210000000     0.479733   
C34      C      0.014880000000     0.491120000000     0.040050000000     0.511917   
C35      C      0.049760000000     0.466380000000     0.463950000000     0.483352   
C36      C      0.974680000000     0.553050000000     0.998780000000     0.503152   
C37      C      0.674750000000     0.859590000000     0.089660000000     0.479501   
C38      C      0.680320000000     0.823600000000     0.207530000000     0.477074   
C39      C      0.716890000000     0.800000000000     0.131330000000     0.477668   
C40      C      0.638530000000     0.883520000000     0.165750000000     0.480642   
C41      C      0.866760000000     0.677970000000     0.124460000000     0.505261   
C42      C      0.828320000000     0.679230000000     0.006540000000     0.505718   
C43      C      0.804940000000     0.716610000000     0.082490000000     0.50614    
C44      C      0.890580000000     0.640190000000     0.048390000000     0.479488   
C45      C      0.527660000000     0.005850000000     0.289280000000     0.507833   
C46      C      0.490020000000     0.008090000000     0.171350000000     0.507973   
C47      C      0.466060000000     0.045350000000     0.247240000000     0.508049   
C48      C      0.551180000000     0.968280000000     0.213400000000     0.507857   
C49      C      0.333430000000     0.149480000000     0.002210000000     0.48041    
C50      C      0.341280000000     0.190960000000     0.120180000000     0.478891   
C51      C      0.377930000000     0.251230000000     0.044330000000     0.478577   
C52      C      0.296210000000     0.089060000000     0.078300000000     0.478808   
C53      C      0.528060000000     0.526820000000     0.040200000000     0.47787    
C54      C      0.492700000000     0.485060000000     0.422360000000     0.478283   
C55      C      0.467870000000     0.424680000000     0.998530000000     0.503254   
C56      C      0.552630000000     0.586900000000     0.463970000000     0.477485   
C57      C      0.163870000000     0.825310000000     0.089880000000     0.523128   
C58      C      0.190110000000     0.860680000000     0.208470000000     0.48318    
C59      C      0.214350000000     0.923310000000     0.133490000000     0.522276   
C60      C      0.136310000000     0.760400000000     0.164590000000     0.479454   
C61      C      0.016810000000     0.528970000000     0.289930000000     0.511755   
C62      C      0.011320000000     0.486640000000     0.172190000000     0.479656   
C63      C      0.975540000000     0.426790000000     0.248640000000     0.477957   
C64      C      0.053060000000     0.588560000000     0.213230000000     0.50722    
C65      C      0.863970000000     0.194590000000     0.373290000000     0.481001   
C66      C      0.827170000000     0.152810000000     0.255500000000     0.509162   
C67      C      0.802620000000     0.092870000000     0.332010000000     0.505575   
C68      C      0.889110000000     0.254780000000     0.296970000000     0.505697   
C69      C      0.674570000000     0.819700000000     0.339680000000     0.510069   
C70      C      0.678080000000     0.860720000000     0.457470000000     0.509466   
C71      C      0.715090000000     0.921340000000     0.381320000000     0.478958   
C72      C      0.637630000000     0.759140000000     0.415820000000     0.507601   
C73      C      0.713590000000     0.985830000000     0.362590000000     0.0264332  
C74      C      0.781170000000     0.985400000000     0.364060000000    -0.0727583  
C75      C      0.735840000000     0.029070000000     0.349900000000     0.0511971  
C76      C      0.803240000000     0.028000000000     0.350860000000     0.379064   
C77      C      0.909850000000     0.362160000000     0.266050000000     0.0236657  
C78      C      0.977940000000     0.362710000000     0.266910000000    -0.0702111  
C79      C      0.888490000000     0.319390000000     0.279000000000     0.0493624  
C80      C      0.956420000000     0.319380000000     0.279410000000     0.378538   
C81      C      0.070770000000     0.694890000000     0.181700000000     0.0247347  
C82      C      0.139420000000     0.696590000000     0.181880000000    -0.0699851  
C83      C      0.050020000000     0.651820000000     0.194400000000     0.052564   
C84      C      0.118920000000     0.653800000000     0.195010000000     0.381558   
C85      C      0.618820000000     0.651490000000     0.445900000000     0.0240595  
C86      C      0.550880000000     0.651210000000     0.446590000000    -0.0721333  
C87      C      0.640040000000     0.694890000000     0.433520000000     0.0516432  
C88      C      0.571680000000     0.694050000000     0.433730000000     0.382831   
C89      C      0.243040000000     0.037040000000     0.114240000000     0.0266857  
C90      C      0.283360000000     0.015100000000     0.080160000000    -0.0568292  
C91      C      0.223020000000     0.995460000000     0.129210000000     0.0552775  
C92      C      0.260170000000     0.972200000000     0.093280000000     0.354744   
C93      C      0.377860000000     0.316760000000     0.026700000000     0.0256775  
C94      C      0.445030000000     0.315560000000     0.028410000000    -0.0710214  
C95      C      0.400690000000     0.360440000000     0.014990000000     0.0507813  
C96      C      0.467790000000     0.358840000000     0.016220000000     0.376904   
C97      C      0.717680000000     0.836580000000     0.257830000000     0.0234991  
C98      C      0.639560000000     0.792480000000     0.255680000000    -0.0737104  
C99      C      0.716010000000     0.833880000000     0.291470000000     0.0496617  
C100     C      0.637630000000     0.792500000000     0.289330000000     0.377123   
C101     C      0.714750000000     0.888820000000     0.040950000000     0.0264093  
C102     C      0.636450000000     0.846880000000     0.039900000000    -0.0666229  
C103     C      0.715620000000     0.887620000000     0.007300000000     0.0543496  
C104     C      0.637140000000     0.848400000000     0.006230000000     0.383144   
C105     C      0.715830000000     0.734190000000     0.112970000000     0.0232408  
C106     C      0.783100000000     0.802650000000     0.113730000000    -0.0742168  
C107     C      0.738210000000     0.713390000000     0.100380000000     0.0501401  
C108     C      0.805310000000     0.782270000000     0.100600000000     0.378989   
C109     C      0.639920000000     0.949720000000     0.183490000000     0.0261704  
C110     C      0.572470000000     0.881440000000     0.183050000000    -0.0697871  
C111     C      0.617730000000     0.970900000000     0.195750000000     0.0520482  
C112     C      0.550420000000     0.902210000000     0.195820000000     0.382819   
C113     C      0.973730000000     0.515370000000     0.371690000000     0.0280117  
C114     C      0.051980000000     0.557130000000     0.373980000000    -0.0689232  
C115     C      0.975640000000     0.517050000000     0.338040000000     0.0560837  
C116     C      0.054030000000     0.556040000000     0.340320000000     0.381298   
C117     C      0.973400000000     0.462110000000     0.122170000000     0.0287723  
C118     C      0.051640000000     0.497700000000     0.123590000000    -0.0695626  
C119     C      0.974530000000     0.462080000000     0.088510000000     0.0561526  
C120     C      0.052960000000     0.500530000000     0.089920000000     0.380637   
C121     C      0.956570000000     0.642050000000     0.029510000000     0.0242819  
C122     C      0.888800000000     0.574170000000     0.031110000000    -0.0711388  
C123     C      0.977590000000     0.619880000000     0.016740000000     0.0493441  
C124     C      0.909310000000     0.552200000000     0.017800000000     0.377419   
C125     C      0.296060000000     0.126400000000     0.451740000000     0.0297779  
C126     C      0.374100000000     0.159420000000     0.454070000000    -0.0696144  
C127     C      0.297960000000     0.125710000000     0.418090000000     0.0579505  
C128     C      0.376290000000     0.161710000000     0.420490000000     0.382781   
C129     C      0.302080000000     0.182690000000     0.168840000000     0.0289405  
C130     C      0.380150000000     0.215570000000     0.169840000000    -0.0683897  
C131     C      0.301200000000     0.181220000000     0.202470000000     0.0546392  
C132     C      0.379600000000     0.217210000000     0.203500000000     0.378527   
C133     C      0.376710000000     0.063560000000     0.276340000000     0.029509   
C134     C      0.444270000000     0.131700000000     0.277840000000    -0.0645825  
C135     C      0.399140000000     0.042530000000     0.264230000000     0.0531115  
C136     C      0.466540000000     0.111110000000     0.265190000000     0.384      
C137     C      0.114770000000     0.466110000000     0.446750000000     0.0293467  
C138     C      0.045940000000     0.399220000000     0.445890000000    -0.0666815  
C139     C      0.135400000000     0.444020000000     0.433840000000     0.0552623  
C140     C      0.066730000000     0.376730000000     0.433440000000     0.380874   
C141     C      0.282950000000     0.302690000000     0.360690000000     0.0259079  
C142     C      0.214830000000     0.235070000000     0.361360000000    -0.0720272  
C143     C      0.303660000000     0.280750000000     0.347210000000     0.0508174  
C144     C      0.235110000000     0.213290000000     0.347330000000     0.37618    
C145     C      0.463060000000     0.495510000000     0.373740000000     0.0239094  
C146     C      0.506020000000     0.460150000000     0.372470000000    -0.0702372  
C147     C      0.464050000000     0.497640000000     0.340110000000     0.0517278  
C148     C      0.504390000000     0.459430000000     0.338790000000     0.377199   
C149     C      0.558400000000     0.517350000000     0.088810000000     0.023932   
C150     C      0.515090000000     0.552350000000     0.089950000000    -0.0723153  
C151     C      0.557850000000     0.515810000000     0.122450000000     0.0520587  
C152     C      0.517150000000     0.553670000000     0.123620000000     0.374244   
C153     C      0.851120000000     0.219510000000     0.423380000000     0.0278714  
C154     C      0.893950000000     0.184010000000     0.421740000000    -0.0644378  
C155     C      0.853010000000     0.220080000000     0.457020000000     0.0547823  
C156     C      0.893210000000     0.181760000000     0.455420000000     0.384468   
C157     C      0.799320000000     0.167570000000     0.173540000000     0.0242984  
C158     C      0.835010000000     0.124920000000     0.171590000000    -0.0735319  
C159     C      0.798870000000     0.165510000000     0.207180000000     0.0500858  
C160     C      0.837400000000     0.125530000000     0.205260000000     0.377142   
C161     C      0.131170000000     0.300050000000     0.257250000000     0.0305224  
C162     C      0.166810000000     0.378430000000     0.255330000000    -0.0691362  
C163     C      0.129770000000     0.301540000000     0.290870000000     0.0593447  
C164     C      0.168280000000     0.380110000000     0.289010000000     0.381492   
C165     C      0.222720000000     0.378850000000     0.038990000000     0.0248861  
C166     C      0.186060000000     0.300420000000     0.040860000000    -0.0720503  
C167     C      0.223000000000     0.377320000000     0.005340000000     0.0504598  
C168     C      0.183480000000     0.298750000000     0.007190000000     0.377649   
C169     C      0.031870000000     0.236840000000     0.113350000000     0.0284592  
C170     C      0.033200000000     0.305440000000     0.112260000000    -0.0676542  
C171     C      0.989340000000     0.215790000000     0.100180000000     0.0551558  
C172     C      0.989990000000     0.284170000000     0.099570000000     0.378783   
C173     C      0.365130000000     0.463700000000     0.196950000000     0.0283155  
C174     C      0.366540000000     0.396490000000     0.195690000000    -0.0701715  
C175     C      0.322520000000     0.442120000000     0.183890000000     0.0518177  
C176     C      0.323240000000     0.374440000000     0.183150000000     0.375319   
C177     C      0.519880000000     0.969820000000     0.372870000000     0.0262586  
C178     C      0.557250000000     0.048300000000     0.371480000000    -0.0694751  
C179     C      0.517200000000     0.968640000000     0.339250000000     0.0523281  
C180     C      0.557340000000     0.047260000000     0.337800000000     0.376437   
C181     C      0.499910000000     0.044740000000     0.087830000000     0.0252236  
C182     C      0.463600000000     0.966290000000     0.088850000000    -0.0673572  
C183     C      0.501170000000     0.045570000000     0.121470000000     0.051364   
C184     C      0.462090000000     0.966940000000     0.122520000000     0.37816    
C185     C      0.698890000000     0.130330000000     0.029580000000     0.0221853  
C186     C      0.699850000000     0.062890000000     0.028470000000    -0.0710763  
C187     C      0.656320000000     0.108960000000     0.016520000000     0.0482176  
C188     C      0.656530000000     0.041030000000     0.015880000000     0.373652   
C189     C      0.175060000000     0.884260000000     0.258140000000     0.0230313  
C190     C      0.220980000000     0.852000000000     0.256890000000    -0.0736612  
C191     C      0.178100000000     0.886410000000     0.291620000000     0.0522523  
C192     C      0.221350000000     0.851140000000     0.290460000000     0.381238   
C193     C      0.129210000000     0.793730000000     0.006910000000     0.0271409  
C194     C      0.192110000000     0.866280000000     0.008330000000    -0.0582015  
C195     C      0.129270000000     0.792310000000     0.040580000000     0.0535428  
C196     C      0.195390000000     0.862840000000     0.041440000000     0.353625   
C197     C      0.364560000000     0.906980000000     0.445970000000     0.0269953  
C198     C      0.368650000000     0.976810000000     0.443410000000    -0.0683688  
C199     C      0.321800000000     0.886780000000     0.433200000000     0.0544354  
C200     C      0.325420000000     0.956520000000     0.430880000000     0.378305   
C201     C      0.834290000000     0.715740000000     0.423200000000     0.0222519  
C202     C      0.798350000000     0.637310000000     0.424240000000    -0.07099    
C203     C      0.837450000000     0.716670000000     0.456810000000     0.0491024  
C204     C      0.798610000000     0.638050000000     0.457940000000     0.374912   
C205     C      0.857410000000     0.642970000000     0.208400000000     0.0232519  
C206     C      0.891330000000     0.721230000000     0.206730000000    -0.0713414  
C207     C      0.856290000000     0.641560000000     0.174750000000     0.0493353  
C208     C      0.893160000000     0.720110000000     0.173050000000     0.373094   
C209     C      0.698570000000     0.640470000000     0.279070000000     0.0244333  
C210     C      0.700350000000     0.573450000000     0.279460000000    -0.0723551  
C211     C      0.655350000000     0.617750000000     0.266480000000     0.0498816  
C212     C      0.657730000000     0.550920000000     0.266370000000     0.379392   
C213     C      0.030220000000     0.806620000000     0.366980000000     0.0220572  
C214     C      0.032160000000     0.739690000000     0.365700000000    -0.0728793  
C215     C      0.987790000000     0.784740000000     0.353310000000     0.0473767  
C216     C      0.989430000000     0.717520000000     0.352520000000     0.374817   
C217     C      0.866050000000     0.683100000000     0.756750000000     0.47673    
C218     C      0.822670000000     0.675710000000     0.874370000000     0.476601   
C219     C      0.763550000000     0.639880000000     0.797490000000     0.476667   
C220     C      0.924790000000     0.718960000000     0.833820000000     0.502915   
C221     C      0.159910000000     0.834360000000     0.958780000000     0.483414   
C222     C      0.195030000000     0.862910000000     0.840310000000     0.516328   
C223     C      0.258750000000     0.889910000000     0.914910000000     0.50791    
C224     C      0.095500000000     0.806180000000     0.884070000000     0.475684   
C225     C      0.532130000000     0.010410000000     0.921480000000     0.478417   
C226     C      0.490110000000     0.004860000000     0.539180000000     0.479191   
C227     C      0.430750000000     0.971650000000     0.962640000000     0.478872   
C228     C      0.592060000000     0.044090000000     0.498080000000     0.503496   
C229     C      0.156870000000     0.337580000000     0.707110000000     0.479194   
C230     C      0.197870000000     0.341510000000     0.589240000000     0.477807   
C231     C      0.258430000000     0.376890000000     0.665560000000     0.504163   
C232     C      0.096690000000     0.302190000000     0.630830000000     0.4796     
C233     C      0.865450000000     0.191790000000     0.505480000000     0.512391   
C234     C      0.823920000000     0.154850000000     0.623280000000     0.477186   
C235     C      0.763630000000     0.129690000000     0.546920000000     0.475588   
C236     C      0.925310000000     0.216880000000     0.581790000000     0.5092     
C237     C      0.530990000000     0.526060000000     0.672360000000     0.50625    
C238     C      0.491110000000     0.487710000000     0.790170000000     0.506961   
C239     C      0.430120000000     0.463330000000     0.714140000000     0.479159   
C240     C      0.592060000000     0.550560000000     0.748480000000     0.504141   
C241     C      0.157190000000     0.342500000000     0.839300000000     0.513599   
C242     C      0.194020000000     0.336570000000     0.956990000000     0.509177   
C243     C      0.217400000000     0.300860000000     0.880220000000     0.480697   
C244     C      0.133310000000     0.378170000000     0.915780000000     0.510359   
C245     C      0.340000000000     0.152790000000     0.870080000000     0.515007   
C246     C      0.338270000000     0.190820000000     0.752280000000     0.509802   
C247     C      0.300630000000     0.214370000000     0.828360000000     0.505053   
C248     C      0.377960000000     0.129610000000     0.794430000000     0.486152   
C249     C      0.010480000000     0.528220000000     0.922210000000     0.479885   
C250     C      0.014880000000     0.491110000000     0.540050000000     0.511903   
C251     C      0.049760000000     0.466380000000     0.963950000000     0.48321    
C252     C      0.974680000000     0.553050000000     0.498780000000     0.503195   
C253     C      0.674750000000     0.859600000000     0.589660000000     0.47939    
C254     C      0.680320000000     0.823600000000     0.707530000000     0.47707    
C255     C      0.716890000000     0.800010000000     0.631330000000     0.477726   
C256     C      0.638530000000     0.883520000000     0.665750000000     0.480633   
C257     C      0.866760000000     0.677970000000     0.624460000000     0.505313   
C258     C      0.828320000000     0.679230000000     0.506540000000     0.50587    
C259     C      0.804940000000     0.716610000000     0.582500000000     0.506023   
C260     C      0.890580000000     0.640190000000     0.548380000000     0.47938    
C261     C      0.527660000000     0.005850000000     0.789270000000     0.5079     
C262     C      0.490020000000     0.008090000000     0.671350000000     0.507836   
C263     C      0.466060000000     0.045350000000     0.747240000000     0.507836   
C264     C      0.551180000000     0.968280000000     0.713400000000     0.507948   
C265     C      0.333430000000     0.149480000000     0.502210000000     0.480361   
C266     C      0.341280000000     0.190960000000     0.620180000000     0.478885   
C267     C      0.377930000000     0.251230000000     0.544330000000     0.478557   
C268     C      0.296210000000     0.089060000000     0.578300000000     0.478803   
C269     C      0.528060000000     0.526820000000     0.540200000000     0.477908   
C270     C      0.492700000000     0.485050000000     0.922350000000     0.478013   
C271     C      0.467870000000     0.424680000000     0.498530000000     0.503364   
C272     C      0.552630000000     0.586900000000     0.963970000000     0.47752    
C273     C      0.163870000000     0.825310000000     0.589880000000     0.522869   
C274     C      0.190110000000     0.860670000000     0.708470000000     0.483281   
C275     C      0.214340000000     0.923300000000     0.633490000000     0.522336   
C276     C      0.136310000000     0.760400000000     0.664590000000     0.479454   
C277     C      0.016810000000     0.528970000000     0.789930000000     0.511789   
C278     C      0.011320000000     0.486650000000     0.672190000000     0.479808   
C279     C      0.975540000000     0.426790000000     0.748640000000     0.47795    
C280     C      0.053060000000     0.588570000000     0.713230000000     0.507352   
C281     C      0.863970000000     0.194590000000     0.873290000000     0.481213   
C282     C      0.827180000000     0.152810000000     0.755500000000     0.50915    
C283     C      0.802620000000     0.092870000000     0.832010000000     0.505608   
C284     C      0.889110000000     0.254780000000     0.796970000000     0.505674   
C285     C      0.674570000000     0.819700000000     0.839680000000     0.510061   
C286     C      0.678070000000     0.860720000000     0.957470000000     0.509536   
C287     C      0.715090000000     0.921340000000     0.881320000000     0.479018   
C288     C      0.637630000000     0.759140000000     0.915820000000     0.507644   
C289     C      0.713590000000     0.985830000000     0.862590000000     0.0264275  
C290     C      0.781170000000     0.985400000000     0.864060000000    -0.0727196  
C291     C      0.735840000000     0.029070000000     0.849900000000     0.0512028  
C292     C      0.803240000000     0.028000000000     0.850850000000     0.379089   
C293     C      0.909850000000     0.362160000000     0.766050000000     0.0236736  
C294     C      0.977940000000     0.362710000000     0.766910000000    -0.070132   
C295     C      0.888490000000     0.319390000000     0.779000000000     0.0493558  
C296     C      0.956420000000     0.319380000000     0.779410000000     0.378356   
C297     C      0.070770000000     0.694890000000     0.681700000000     0.0247277  
C298     C      0.139420000000     0.696590000000     0.681880000000    -0.0699974  
C299     C      0.050020000000     0.651820000000     0.694400000000     0.0525758  
C300     C      0.118920000000     0.653800000000     0.695010000000     0.381582   
C301     C      0.618820000000     0.651490000000     0.945900000000     0.0240582  
C302     C      0.550880000000     0.651210000000     0.946590000000    -0.0721407  
C303     C      0.640040000000     0.694890000000     0.933520000000     0.05164    
C304     C      0.571680000000     0.694050000000     0.933730000000     0.382836   
C305     C      0.243040000000     0.037040000000     0.614240000000     0.026686   
C306     C      0.283360000000     0.015100000000     0.580160000000    -0.0568262  
C307     C      0.223030000000     0.995470000000     0.629210000000     0.0552452  
C308     C      0.260170000000     0.972200000000     0.593280000000     0.354729   
C309     C      0.377860000000     0.316760000000     0.526700000000     0.0256714  
C310     C      0.445030000000     0.315560000000     0.528410000000    -0.0710296  
C311     C      0.400690000000     0.360440000000     0.514990000000     0.0507782  
C312     C      0.467790000000     0.358840000000     0.516220000000     0.376901   
C313     C      0.717680000000     0.836580000000     0.757840000000     0.0234846  
C314     C      0.639560000000     0.792480000000     0.755680000000    -0.0737103  
C315     C      0.716010000000     0.833880000000     0.791470000000     0.0496629  
C316     C      0.637630000000     0.792500000000     0.789330000000     0.377121   
C317     C      0.714750000000     0.888820000000     0.540950000000     0.0264551  
C318     C      0.636450000000     0.846880000000     0.539900000000    -0.0665466  
C319     C      0.715620000000     0.887620000000     0.507300000000     0.0542208  
C320     C      0.637140000000     0.848400000000     0.506230000000     0.383047   
C321     C      0.715830000000     0.734190000000     0.612970000000     0.0232576  
C322     C      0.783100000000     0.802650000000     0.613730000000    -0.0741981  
C323     C      0.738200000000     0.713390000000     0.600380000000     0.0500847  
C324     C      0.805320000000     0.782270000000     0.600600000000     0.379102   
C325     C      0.639920000000     0.949730000000     0.683490000000     0.0260973  
C326     C      0.572470000000     0.881440000000     0.683050000000    -0.0697943  
C327     C      0.617730000000     0.970900000000     0.695750000000     0.0520812  
C328     C      0.550420000000     0.902210000000     0.695820000000     0.382827   
C329     C      0.973730000000     0.515370000000     0.871690000000     0.0280209  
C330     C      0.051990000000     0.557130000000     0.873980000000    -0.0690957  
C331     C      0.975640000000     0.517050000000     0.838040000000     0.0560672  
C332     C      0.054030000000     0.556040000000     0.840330000000     0.381254   
C333     C      0.973400000000     0.462100000000     0.622170000000     0.0287415  
C334     C      0.051640000000     0.497700000000     0.623590000000    -0.0695961  
C335     C      0.974530000000     0.462080000000     0.588510000000     0.0561708  
C336     C      0.052960000000     0.500530000000     0.589920000000     0.380744   
C337     C      0.956570000000     0.642050000000     0.529510000000     0.0242463  
C338     C      0.888800000000     0.574170000000     0.531110000000    -0.071155   
C339     C      0.977590000000     0.619880000000     0.516740000000     0.0493417  
C340     C      0.909310000000     0.552210000000     0.517800000000     0.377284   
C341     C      0.296060000000     0.126400000000     0.951740000000     0.0297775  
C342     C      0.374100000000     0.159420000000     0.954080000000    -0.0695339  
C343     C      0.297960000000     0.125710000000     0.918090000000     0.0579258  
C344     C      0.376290000000     0.161710000000     0.920490000000     0.382801   
C345     C      0.302080000000     0.182690000000     0.668840000000     0.0289446  
C346     C      0.380150000000     0.215570000000     0.669840000000    -0.0683889  
C347     C      0.301200000000     0.181220000000     0.702470000000     0.0546373  
C348     C      0.379600000000     0.217210000000     0.703500000000     0.378522   
C349     C      0.376710000000     0.063560000000     0.776340000000     0.0294815  
C350     C      0.444270000000     0.131700000000     0.777840000000    -0.0646301  
C351     C      0.399140000000     0.042530000000     0.764230000000     0.0531711  
C352     C      0.466540000000     0.111110000000     0.765190000000     0.384135   
C353     C      0.114770000000     0.466110000000     0.946750000000     0.0293466  
C354     C      0.045940000000     0.399220000000     0.945890000000    -0.0667455  
C355     C      0.135400000000     0.444020000000     0.933840000000     0.0552584  
C356     C      0.066730000000     0.376730000000     0.933440000000     0.381034   
C357     C      0.282950000000     0.302690000000     0.860690000000     0.0259003  
C358     C      0.214830000000     0.235070000000     0.861360000000    -0.0720284  
C359     C      0.303660000000     0.280750000000     0.847210000000     0.0508257  
C360     C      0.235110000000     0.213290000000     0.847330000000     0.37618    
C361     C      0.463060000000     0.495510000000     0.873740000000     0.0239379  
C362     C      0.506020000000     0.460150000000     0.872470000000    -0.0702426  
C363     C      0.464050000000     0.497640000000     0.840110000000     0.0517082  
C364     C      0.504390000000     0.459430000000     0.838790000000     0.37721    
C365     C      0.558400000000     0.517350000000     0.588820000000     0.0239706  
C366     C      0.515090000000     0.552350000000     0.589950000000    -0.0723078  
C367     C      0.557860000000     0.515810000000     0.622450000000     0.0519686  
C368     C      0.517150000000     0.553670000000     0.623620000000     0.374238   
C369     C      0.851120000000     0.219510000000     0.923380000000     0.027866   
C370     C      0.893950000000     0.184010000000     0.921740000000    -0.0644286  
C371     C      0.853010000000     0.220080000000     0.957020000000     0.054758   
C372     C      0.893210000000     0.181760000000     0.955420000000     0.384469   
C373     C      0.799320000000     0.167570000000     0.673540000000     0.0242979  
C374     C      0.835010000000     0.124920000000     0.671590000000    -0.0735683  
C375     C      0.798870000000     0.165510000000     0.707180000000     0.0500745  
C376     C      0.837400000000     0.125530000000     0.705250000000     0.377033   
C377     C      0.131170000000     0.300050000000     0.757250000000     0.0305025  
C378     C      0.166810000000     0.378440000000     0.755330000000    -0.0691379  
C379     C      0.129770000000     0.301540000000     0.790870000000     0.059388   
C380     C      0.168280000000     0.380110000000     0.789020000000     0.381608   
C381     C      0.222720000000     0.378850000000     0.538990000000     0.0250038  
C382     C      0.186060000000     0.300420000000     0.540860000000    -0.0720733  
C383     C      0.223000000000     0.377320000000     0.505340000000     0.0503104  
C384     C      0.183480000000     0.298750000000     0.507190000000     0.377577   
C385     C      0.031870000000     0.236840000000     0.613350000000     0.0284667  
C386     C      0.033200000000     0.305440000000     0.612260000000    -0.067648   
C387     C      0.989340000000     0.215790000000     0.600180000000     0.05515    
C388     C      0.989990000000     0.284170000000     0.599570000000     0.378777   
C389     C      0.365120000000     0.463700000000     0.696950000000     0.0282156  
C390     C      0.366540000000     0.396490000000     0.695680000000    -0.0702119  
C391     C      0.322520000000     0.442120000000     0.683890000000     0.0518684  
C392     C      0.323240000000     0.374440000000     0.683150000000     0.375358   
C393     C      0.519880000000     0.969820000000     0.872870000000     0.0262711  
C394     C      0.557250000000     0.048300000000     0.871480000000    -0.0693209  
C395     C      0.517200000000     0.968640000000     0.839250000000     0.0523208  
C396     C      0.557340000000     0.047260000000     0.837790000000     0.376485   
C397     C      0.499910000000     0.044740000000     0.587830000000     0.0252332  
C398     C      0.463600000000     0.966290000000     0.588850000000    -0.0673436  
C399     C      0.501170000000     0.045570000000     0.621470000000     0.0513528  
C400     C      0.462090000000     0.966940000000     0.622520000000     0.378148   
C401     C      0.698890000000     0.130330000000     0.529580000000     0.0221823  
C402     C      0.699850000000     0.062890000000     0.528470000000    -0.0710806  
C403     C      0.656320000000     0.108960000000     0.516520000000     0.0482051  
C404     C      0.656530000000     0.041030000000     0.515880000000     0.373644   
C405     C      0.175060000000     0.884260000000     0.758140000000     0.0230351  
C406     C      0.220970000000     0.852000000000     0.756890000000    -0.0735831  
C407     C      0.178100000000     0.886410000000     0.791620000000     0.0522705  
C408     C      0.221350000000     0.851140000000     0.790460000000     0.381195   
C409     C      0.129210000000     0.793730000000     0.506920000000     0.0270064  
C410     C      0.192110000000     0.866280000000     0.508330000000    -0.0582131  
C411     C      0.129270000000     0.792310000000     0.540580000000     0.053587   
C412     C      0.195390000000     0.862840000000     0.541450000000     0.353718   
C413     C      0.364560000000     0.906980000000     0.945970000000     0.0269781  
C414     C      0.368650000000     0.976810000000     0.943410000000    -0.068376   
C415     C      0.321800000000     0.886780000000     0.933200000000     0.0544539  
C416     C      0.325420000000     0.956520000000     0.930880000000     0.378311   
C417     C      0.834290000000     0.715740000000     0.923200000000     0.022255   
C418     C      0.798350000000     0.637310000000     0.924240000000    -0.0709994  
C419     C      0.837440000000     0.716670000000     0.956810000000     0.0490778  
C420     C      0.798620000000     0.638050000000     0.957940000000     0.374914   
C421     C      0.857410000000     0.642970000000     0.708400000000     0.0232445  
C422     C      0.891330000000     0.721230000000     0.706730000000    -0.0713461  
C423     C      0.856290000000     0.641560000000     0.674750000000     0.0493447  
C424     C      0.893160000000     0.720110000000     0.673050000000     0.373095   
C425     C      0.698570000000     0.640470000000     0.779070000000     0.0244718  
C426     C      0.700350000000     0.573450000000     0.779460000000    -0.0724298  
C427     C      0.655350000000     0.617750000000     0.766480000000     0.049833   
C428     C      0.657740000000     0.550920000000     0.766370000000     0.379371   
C429     C      0.030220000000     0.806620000000     0.866980000000     0.0221627  
C430     C      0.032160000000     0.739680000000     0.865700000000    -0.0729826  
C431     C      0.987790000000     0.784740000000     0.853320000000     0.0472653  
C432     C      0.989430000000     0.717520000000     0.852520000000     0.374786   
F1       F      0.847730000000     0.046740000000     0.345970000000    -0.433857   
F2       F      0.981410000000     0.300120000000     0.285650000000    -0.433555   
F3       F      0.144850000000     0.635440000000     0.200800000000    -0.428609   
F4       F      0.546120000000     0.712980000000     0.428550000000    -0.423581   
F5       F      0.252040000000     0.936410000000     0.074770000000    -0.344877   
F6       F      0.512370000000     0.377600000000     0.011860000000    -0.437192   
F7       F      0.597170000000     0.770340000000     0.303820000000    -0.435204   
F8       F      0.597620000000     0.827320000000     0.990390000000    -0.426767   
F9       F      0.849700000000     0.808230000000     0.095350000000    -0.431582   
F10      F      0.506010000000     0.876490000000     0.201070000000    -0.424272   
F11      F      0.094610000000     0.576540000000     0.325940000000    -0.43059    
F12      F      0.093220000000     0.519940000000     0.075070000000    -0.438764   
F13      F      0.883650000000     0.507610000000     0.512950000000    -0.43938    
F14      F      0.416820000000     0.179580000000     0.406140000000    -0.435133   
F15      F      0.418970000000     0.234120000000     0.219410000000    -0.436699   
F16      F      0.511100000000     0.136820000000     0.260560000000    -0.424471   
F17      F      0.041050000000     0.332500000000     0.427210000000    -0.429408   
F18      F      0.209270000000     0.168930000000     0.341590000000    -0.441376   
F19      F      0.525970000000     0.441580000000     0.322810000000    -0.427415   
F20      F      0.495600000000     0.571580000000     0.139540000000    -0.44395    
F21      F      0.914500000000     0.162670000000     0.470160000000    -0.432711   
F22      F      0.856680000000     0.104310000000     0.219830000000    -0.437976   
F23      F      0.187150000000     0.420600000000     0.303620000000    -0.437048   
F24      F      0.163590000000     0.258240000000     0.992570000000    -0.438767   
F25      F      0.971110000000     0.309470000000     0.093140000000    -0.438634   
F26      F      0.304350000000     0.330240000000     0.176700000000    -0.441688   
F27      F      0.575960000000     0.086730000000     0.321770000000    -0.431817   
F28      F      0.443420000000     0.927350000000     0.138390000000    -0.428317   
F29      F      0.637350000000     0.996780000000     0.509500000000    -0.43618    
F30      F      0.244620000000     0.834350000000     0.305440000000    -0.436355   
F31      F      0.227330000000     0.898940000000     0.057830000000    -0.346673   
F32      F      0.307960000000     0.982930000000     0.423850000000    -0.438216   
F33      F      0.780880000000     0.598490000000     0.473780000000    -0.440278   
F34      F      0.910710000000     0.759360000000     0.156820000000    -0.435278   
F35      F      0.639710000000     0.506530000000     0.260930000000    -0.427557   
F36      F      0.971330000000     0.673460000000     0.345810000000    -0.44065    
F37      F      0.847730000000     0.046740000000     0.845970000000    -0.433877   
F38      F      0.981420000000     0.300120000000     0.785650000000    -0.433458   
F39      F      0.144850000000     0.635440000000     0.700800000000    -0.428628   
F40      F      0.546120000000     0.712980000000     0.928550000000    -0.423584   
F41      F      0.252040000000     0.936410000000     0.574770000000    -0.344871   
F42      F      0.512370000000     0.377600000000     0.511860000000    -0.437215   
F43      F      0.597170000000     0.770340000000     0.803820000000    -0.435205   
F44      F      0.597620000000     0.827320000000     0.490390000000    -0.426717   
F45      F      0.849700000000     0.808230000000     0.595350000000    -0.431665   
F46      F      0.506010000000     0.876490000000     0.701070000000    -0.424273   
F47      F      0.094610000000     0.576540000000     0.825940000000    -0.430548   
F48      F      0.093220000000     0.519940000000     0.575080000000    -0.438842   
F49      F      0.883660000000     0.507610000000     0.012950000000    -0.439452   
F50      F      0.416820000000     0.179580000000     0.906150000000    -0.435174   
F51      F      0.418970000000     0.234120000000     0.719410000000    -0.4367     
F52      F      0.511090000000     0.136820000000     0.760560000000    -0.424563   
F53      F      0.041050000000     0.332510000000     0.927210000000    -0.429502   
F54      F      0.209270000000     0.168930000000     0.841590000000    -0.441376   
F55      F      0.525970000000     0.441580000000     0.822810000000    -0.427412   
F56      F      0.495600000000     0.571580000000     0.639540000000    -0.44395    
F57      F      0.914500000000     0.162670000000     0.970160000000    -0.432728   
F58      F      0.856680000000     0.104310000000     0.719830000000    -0.437915   
F59      F      0.187150000000     0.420600000000     0.803620000000    -0.437116   
F60      F      0.163590000000     0.258240000000     0.492570000000    -0.438725   
F61      F      0.971110000000     0.309470000000     0.593140000000    -0.438638   
F62      F      0.304350000000     0.330240000000     0.676700000000    -0.441697   
F63      F      0.575960000000     0.086730000000     0.821770000000    -0.43187    
F64      F      0.443420000000     0.927350000000     0.638390000000    -0.42831    
F65      F      0.637350000000     0.996780000000     0.009500000000    -0.436162   
F66      F      0.244620000000     0.834350000000     0.805440000000    -0.436365   
F67      F      0.227330000000     0.898940000000     0.557830000000    -0.346743   
F68      F      0.307960000000     0.982930000000     0.923850000000    -0.438224   
F69      F      0.780890000000     0.598490000000     0.973780000000    -0.440278   
F70      F      0.910710000000     0.759360000000     0.656820000000    -0.435283   
F71      F      0.639710000000     0.506530000000     0.760930000000    -0.427552   
F72      F      0.971330000000     0.673450000000     0.845810000000    -0.440585   
H1       H      0.716500000000     0.045050000000     0.344800000000     0.0433469  
H2       H      0.678110000000     0.970300000000     0.366690000000     0.0512291  
H3       H      0.800710000000     0.969630000000     0.369190000000     0.101444   
H4       H      0.853020000000     0.303870000000     0.283180000000     0.0398389  
H5       H      0.889880000000     0.377560000000     0.261290000000     0.045121   
H6       H      0.013440000000     0.378740000000     0.262680000000     0.105731   
H7       H      0.014540000000     0.635540000000     0.198790000000     0.0410117  
H8       H      0.050360000000     0.709810000000     0.176990000000     0.0478143  
H9       H      0.174900000000     0.713020000000     0.177440000000     0.107102   
H10      H      0.675420000000     0.710840000000     0.428850000000     0.0390651  
H11      H      0.638680000000     0.635860000000     0.450200000000     0.048609   
H12      H      0.515500000000     0.635420000000     0.451290000000     0.104067   
H13      H      0.199820000000     0.988820000000     0.148790000000     0.0332165  
H14      H      0.234830000000     0.061650000000     0.122750000000     0.0392776  
H15      H      0.304410000000     0.021020000000     0.059290000000     0.0914368  
H16      H      0.381610000000     0.376770000000     0.010140000000     0.0403784  
H17      H      0.342290000000     0.301430000000     0.030340000000     0.0498375  
H18      H      0.464100000000     0.299240000000     0.033320000000     0.102775   
H19      H      0.747090000000     0.851080000000     0.304640000000     0.0370823  
H20      H      0.749910000000     0.855070000000     0.246300000000     0.0460411  
H21      H      0.608480000000     0.775700000000     0.242470000000     0.10083    
H22      H      0.747670000000     0.903390000000     0.995330000000     0.0393495  
H23      H      0.746210000000     0.904860000000     0.053700000000     0.0450832  
H24      H      0.604490000000     0.829630000000     0.051960000000     0.104285   
H25      H      0.719000000000     0.677940000000     0.095610000000     0.0404332  
H26      H      0.680420000000     0.713980000000     0.117330000000     0.0480716  
H27      H      0.802430000000     0.838090000000     0.118530000000     0.101722   
H28      H      0.637080000000     0.006400000000     0.200270000000     0.0412094  
H29      H      0.675340000000     0.969740000000     0.179120000000     0.0483066  
H30      H      0.553010000000     0.845940000000     0.178490000000     0.107881   
H31      H      0.944520000000     0.500460000000     0.324870000000     0.0390069  
H32      H      0.941360000000     0.498180000000     0.383150000000     0.0497973  
H33      H      0.083020000000     0.573260000000     0.387280000000     0.0993274  
H34      H      0.943160000000     0.447860000000     0.075680000000     0.0470826  
H35      H      0.941290000000     0.447400000000     0.134000000000     0.0465149  
H36      H      0.082940000000     0.512330000000     0.136530000000     0.105672   
H37      H      0.012840000000     0.639370000000     0.011570000000     0.0387768  
H38      H      0.976430000000     0.677620000000     0.033590000000     0.0437285  
H39      H      0.853560000000     0.554450000000     0.036310000000     0.108988   
H40      H      0.267030000000     0.112380000000     0.404780000000     0.0474163  
H41      H      0.263820000000     0.112960000000     0.463190000000     0.0494554  
H42      H      0.405110000000     0.173150000000     0.467320000000     0.100317   
H43      H      0.269200000000     0.166470000000     0.214480000000     0.0409079  
H44      H      0.270630000000     0.168390000000     0.156120000000     0.0445098  
H45      H      0.411940000000     0.228590000000     0.157750000000     0.0998557  
H46      H      0.379840000000     0.007120000000     0.259320000000     0.0457754  
H47      H      0.341170000000     0.043570000000     0.280240000000     0.0491465  
H48      H      0.463730000000     0.167100000000     0.282780000000     0.118574   
H49      H      0.170920000000     0.463470000000     0.429670000000     0.0459441  
H50      H      0.135290000000     0.501450000000     0.451500000000     0.0531419  
H51      H      0.010410000000     0.380270000000     0.450110000000     0.103653   
H52      H      0.338950000000     0.300240000000     0.342180000000     0.0460538  
H53      H      0.303050000000     0.338090000000     0.365400000000     0.0469566  
H54      H      0.179540000000     0.215450000000     0.366420000000     0.105578   
H55      H      0.447740000000     0.513520000000     0.328260000000     0.0409083  
H56      H      0.446600000000     0.510480000000     0.386560000000     0.0458646  
H57      H      0.523730000000     0.445810000000     0.384420000000     0.105406   
H58      H      0.574450000000     0.500280000000     0.134370000000     0.0433063  
H59      H      0.574860000000     0.502340000000     0.076060000000     0.0531844  
H60      H      0.497090000000     0.566330000000     0.077940000000     0.0979191  
H61      H      0.836030000000     0.234440000000     0.469940000000     0.0378053  
H62      H      0.833410000000     0.234000000000     0.411640000000     0.0453444  
H63      H      0.910470000000     0.169260000000     0.408730000000     0.111391   
H64      H      0.784460000000     0.182350000000     0.220230000000     0.0375787  
H65      H      0.784710000000     0.185260000000     0.161930000000     0.0438274  
H66      H      0.849800000000     0.108530000000     0.158450000000     0.0962308  
H67      H      0.115080000000     0.270250000000     0.303910000000     0.045685   
H68      H      0.116900000000     0.267760000000     0.245630000000     0.0506046  
H69      H      0.181890000000     0.409680000000     0.242220000000     0.0995579  
H70      H      0.237750000000     0.408640000000     0.992330000000     0.0369258  
H71      H      0.237790000000     0.411160000000     0.050630000000     0.0459598  
H72      H      0.170930000000     0.269180000000     0.053990000000     0.0974456  
H73      H      0.973650000000     0.180230000000     0.096030000000     0.0466212  
H74      H      0.046850000000     0.216510000000     0.118260000000     0.0499796  
H75      H      0.049510000000     0.341030000000     0.116460000000     0.102379   
H76      H      0.306760000000     0.461940000000     0.179850000000     0.0454732  
H77      H      0.380110000000     0.499030000000     0.201870000000     0.0572577  
H78      H      0.382900000000     0.377250000000     0.199780000000     0.102984   
H79      H      0.500360000000     0.936410000000     0.327470000000     0.0458999  
H80      H      0.504310000000     0.938380000000     0.385740000000     0.0498203  
H81      H      0.572590000000     0.080440000000     0.383380000000     0.100422   
H82      H      0.517110000000     0.077690000000     0.133430000000     0.040721   
H83      H      0.515530000000     0.076310000000     0.075130000000     0.0434317  
H84      H      0.449160000000     0.934290000000     0.076800000000     0.104133   
H85      H      0.640820000000     0.129010000000     0.012430000000     0.039647   
H86      H      0.714010000000     0.165680000000     0.034450000000     0.0449872  
H87      H      0.716030000000     0.043500000000     0.032640000000     0.0986132  
H88      H      0.160360000000     0.900030000000     0.304430000000     0.0362338  
H89      H      0.155880000000     0.896980000000     0.246220000000     0.0427034  
H90      H      0.238410000000     0.838090000000     0.244030000000     0.103794   
H91      H      0.103630000000     0.763180000000     0.052940000000     0.027777   
H92      H      0.103480000000     0.765720000000     0.993660000000     0.036969   
H93      H      0.216920000000     0.896280000000     0.996250000000     0.0975453  
H94      H      0.304890000000     0.851000000000     0.429780000000     0.047038   
H95      H      0.378470000000     0.885830000000     0.451420000000     0.0512856  
H96      H      0.386090000000     0.012590000000     0.446910000000     0.103163   
H97      H      0.853920000000     0.748810000000     0.468730000000     0.0383234  
H98      H      0.849200000000     0.747250000000     0.410450000000     0.0406877  
H99      H      0.783470000000     0.605290000000     0.412180000000     0.100919   
H100     H      0.841280000000     0.609280000000     0.163050000000     0.0371836  
H101     H      0.842660000000     0.611610000000     0.221350000000     0.0451703  
H102     H      0.904690000000     0.753330000000     0.218510000000     0.096436   
H103     H      0.638850000000     0.636730000000     0.261870000000     0.0433959  
H104     H      0.713510000000     0.675880000000     0.283570000000     0.0453199  
H105     H      0.716680000000     0.554300000000     0.284100000000     0.103623   
H106     H      0.971670000000     0.804160000000     0.349030000000     0.0378249  
H107     H      0.045020000000     0.841870000000     0.372120000000     0.0441313  
H108     H      0.048510000000     0.720470000000     0.369960000000     0.102764   
H109     H      0.716500000000     0.045050000000     0.844800000000     0.0433419  
H110     H      0.678110000000     0.970300000000     0.866680000000     0.0512248  
H111     H      0.800710000000     0.969630000000     0.869190000000     0.101428   
H112     H      0.853020000000     0.303870000000     0.783180000000     0.0398402  
H113     H      0.889880000000     0.377560000000     0.761290000000     0.0451145  
H114     H      0.013440000000     0.378740000000     0.762680000000     0.105708   
H115     H      0.014540000000     0.635540000000     0.698790000000     0.041001   
H116     H      0.050360000000     0.709810000000     0.676990000000     0.0478156  
H117     H      0.174900000000     0.713020000000     0.677440000000     0.107099   
H118     H      0.675420000000     0.710840000000     0.928850000000     0.0390562  
H119     H      0.638680000000     0.635860000000     0.950200000000     0.0486068  
H120     H      0.515500000000     0.635410000000     0.951290000000     0.104068   
H121     H      0.199820000000     0.988820000000     0.648790000000     0.0332391  
H122     H      0.234830000000     0.061650000000     0.622750000000     0.0392764  
H123     H      0.304410000000     0.021020000000     0.559290000000     0.091429   
H124     H      0.381610000000     0.376770000000     0.510140000000     0.0403628  
H125     H      0.342290000000     0.301430000000     0.530340000000     0.0498343  
H126     H      0.464100000000     0.299240000000     0.533320000000     0.102769   
H127     H      0.747090000000     0.851080000000     0.804640000000     0.0370774  
H128     H      0.749920000000     0.855070000000     0.746300000000     0.0460478  
H129     H      0.608480000000     0.775700000000     0.742470000000     0.100831   
H130     H      0.747670000000     0.903390000000     0.495330000000     0.0394174  
H131     H      0.746210000000     0.904860000000     0.553700000000     0.0450649  
H132     H      0.604490000000     0.829630000000     0.551970000000     0.104246   
H133     H      0.719000000000     0.677940000000     0.595620000000     0.0404512  
H134     H      0.680420000000     0.713980000000     0.617330000000     0.0480725  
H135     H      0.802430000000     0.838090000000     0.618530000000     0.101715   
H136     H      0.637080000000     0.006400000000     0.700270000000     0.0411926  
H137     H      0.675340000000     0.969740000000     0.679120000000     0.0483314  
H138     H      0.553010000000     0.845940000000     0.678490000000     0.107881   
H139     H      0.944520000000     0.500460000000     0.824870000000     0.0390068  
H140     H      0.941360000000     0.498180000000     0.883150000000     0.0497856  
H141     H      0.083020000000     0.573260000000     0.887280000000     0.0993874  
H142     H      0.943160000000     0.447860000000     0.575680000000     0.0470754  
H143     H      0.941300000000     0.447400000000     0.634000000000     0.0465265  
H144     H      0.082940000000     0.512330000000     0.636530000000     0.105683   
H145     H      0.012840000000     0.639370000000     0.511570000000     0.0387619  
H146     H      0.976430000000     0.677620000000     0.533590000000     0.0437275  
H147     H      0.853560000000     0.554450000000     0.536300000000     0.108997   
H148     H      0.267030000000     0.112380000000     0.904780000000     0.047426   
H149     H      0.263820000000     0.112960000000     0.963190000000     0.0494406  
H150     H      0.405110000000     0.173150000000     0.967320000000     0.100294   
H151     H      0.269200000000     0.166470000000     0.714480000000     0.0409087  
H152     H      0.270630000000     0.168390000000     0.656110000000     0.0445146  
H153     H      0.411940000000     0.228590000000     0.657750000000     0.0998538  
H154     H      0.379840000000     0.007120000000     0.759320000000     0.0457593  
H155     H      0.341170000000     0.043570000000     0.780240000000     0.0491553  
H156     H      0.463730000000     0.167100000000     0.782780000000     0.118599   
H157     H      0.170920000000     0.463470000000     0.929670000000     0.0459364  
H158     H      0.135290000000     0.501460000000     0.951500000000     0.0531417  
H159     H      0.010410000000     0.380270000000     0.950110000000     0.103675   
H160     H      0.338950000000     0.300250000000     0.842180000000     0.0460449  
H161     H      0.303050000000     0.338090000000     0.865390000000     0.046954   
H162     H      0.179540000000     0.215450000000     0.866420000000     0.105577   
H163     H      0.447740000000     0.513520000000     0.828260000000     0.0409138  
H164     H      0.446600000000     0.510480000000     0.886560000000     0.0458595  
H165     H      0.523730000000     0.445810000000     0.884420000000     0.105411   
H166     H      0.574450000000     0.500280000000     0.634370000000     0.0433264  
H167     H      0.574860000000     0.502330000000     0.576060000000     0.0531703  
H168     H      0.497090000000     0.566330000000     0.577940000000     0.0979156  
H169     H      0.836040000000     0.234440000000     0.969940000000     0.037795   
H170     H      0.833420000000     0.234000000000     0.911640000000     0.0453433  
H171     H      0.910470000000     0.169260000000     0.908730000000     0.111388   
H172     H      0.784460000000     0.182350000000     0.720230000000     0.0375827  
H173     H      0.784710000000     0.185260000000     0.661940000000     0.04382    
H174     H      0.849800000000     0.108530000000     0.658440000000     0.0962287  
H175     H      0.115080000000     0.270250000000     0.803910000000     0.045678   
H176     H      0.116900000000     0.267760000000     0.745630000000     0.0506131  
H177     H      0.181900000000     0.409680000000     0.742220000000     0.0995718  
H178     H      0.237750000000     0.408640000000     0.492330000000     0.036994   
H179     H      0.237800000000     0.411170000000     0.550620000000     0.0459074  
H180     H      0.170930000000     0.269180000000     0.553990000000     0.0974344  
H181     H      0.973650000000     0.180230000000     0.596030000000     0.0466187  
H182     H      0.046850000000     0.216510000000     0.618260000000     0.049972   
H183     H      0.049510000000     0.341030000000     0.616460000000     0.102369   
H184     H      0.306760000000     0.461940000000     0.679850000000     0.0454509  
H185     H      0.380110000000     0.499020000000     0.701870000000     0.05729    
H186     H      0.382900000000     0.377250000000     0.699780000000     0.102998   
H187     H      0.500360000000     0.936410000000     0.827470000000     0.0459051  
H188     H      0.504310000000     0.938380000000     0.885740000000     0.0498199  
H189     H      0.572590000000     0.080450000000     0.883380000000     0.10037    
H190     H      0.517110000000     0.077690000000     0.633430000000     0.040722   
H191     H      0.515530000000     0.076310000000     0.575130000000     0.0434177  
H192     H      0.449160000000     0.934290000000     0.576800000000     0.104118   
H193     H      0.640820000000     0.129010000000     0.512420000000     0.0396347  
H194     H      0.714010000000     0.165680000000     0.534450000000     0.0449807  
H195     H      0.716030000000     0.043500000000     0.532640000000     0.098608   
H196     H      0.160360000000     0.900030000000     0.804430000000     0.0362236  
H197     H      0.155880000000     0.896980000000     0.746230000000     0.0427006  
H198     H      0.238410000000     0.838090000000     0.744030000000     0.103734   
H199     H      0.103630000000     0.763180000000     0.552940000000     0.0277633  
H200     H      0.103470000000     0.765720000000     0.493660000000     0.0370262  
H201     H      0.216920000000     0.896280000000     0.496250000000     0.0975801  
H202     H      0.304890000000     0.851000000000     0.929780000000     0.0470245  
H203     H      0.378470000000     0.885830000000     0.951420000000     0.0512828  
H204     H      0.386090000000     0.012590000000     0.946910000000     0.103159   
H205     H      0.853920000000     0.748810000000     0.968730000000     0.0383209  
H206     H      0.849200000000     0.747250000000     0.910450000000     0.0406828  
H207     H      0.783470000000     0.605290000000     0.912180000000     0.100917   
H208     H      0.841280000000     0.609280000000     0.663050000000     0.0371831  
H209     H      0.842660000000     0.611610000000     0.721350000000     0.0451739  
H210     H      0.904690000000     0.753330000000     0.718510000000     0.0964443  
H211     H      0.638850000000     0.636730000000     0.761870000000     0.0434179  
H212     H      0.713510000000     0.675890000000     0.783570000000     0.0453072  
H213     H      0.716680000000     0.554300000000     0.784100000000     0.103642   
H214     H      0.971670000000     0.804160000000     0.849030000000     0.0378577  
H215     H      0.045020000000     0.841870000000     0.872120000000     0.0440956  
H216     H      0.048510000000     0.720470000000     0.869960000000     0.102807   
N1       N      0.736380000000     0.964120000000     0.369700000000    -0.165504   
N2       N      0.780640000000     0.050120000000     0.343870000000    -0.234468   
N3       N      0.954600000000     0.383960000000     0.260170000000    -0.165914   
N4       N      0.911520000000     0.297700000000     0.285490000000    -0.235159   
N5       N      0.115500000000     0.717310000000     0.175560000000    -0.165821   
N6       N      0.074020000000     0.631260000000     0.201270000000    -0.234021   
N7       N      0.574240000000     0.629770000000     0.452510000000    -0.165424   
N8       N      0.616500000000     0.716180000000     0.427310000000    -0.233775   
N9       N      0.274650000000     0.047240000000     0.090960000000    -0.168705   
N10      N      0.233730000000     0.964350000000     0.119670000000    -0.233693   
N11      N      0.400100000000     0.294400000000     0.033450000000    -0.165284   
N12      N      0.445630000000     0.381510000000     0.009600000000    -0.235137   
N13      N      0.679360000000     0.816710000000     0.240090000000    -0.166476   
N14      N      0.675930000000     0.814190000000     0.307110000000    -0.237835   
N15      N      0.675240000000     0.866160000000     0.057100000000    -0.165811   
N16      N      0.676870000000     0.866580000000     0.990030000000    -0.235372   
N17      N      0.738400000000     0.778800000000     0.119720000000    -0.166326   
N18      N      0.782920000000     0.737400000000     0.094080000000    -0.235386   
N19      N      0.617170000000     0.905010000000     0.177080000000    -0.165339   
N20      N      0.573010000000     0.947170000000     0.202040000000    -0.234675   
N21      N      0.011950000000     0.534580000000     0.389540000000    -0.165161   
N22      N      0.015730000000     0.535070000000     0.322480000000    -0.235498   
N23      N      0.012020000000     0.480980000000     0.139580000000    -0.165248   
N24      N      0.014290000000     0.483710000000     0.072530000000    -0.235359   
N25      N      0.912170000000     0.619060000000     0.036730000000    -0.165054   
N26      N      0.953940000000     0.574990000000     0.010710000000    -0.23548    
N27      N      0.334260000000     0.144110000000     0.469580000000    -0.165438   
N28      N      0.338190000000     0.145710000000     0.402620000000    -0.236091   
N29      N      0.341340000000     0.197470000000     0.152700000000    -0.166092   
N30      N      0.339850000000     0.197650000000     0.219700000000    -0.23621    
N31      N      0.399400000000     0.108130000000     0.283220000000    -0.163176   
N32      N      0.444030000000     0.066290000000     0.258510000000    -0.234255   
N33      N      0.070020000000     0.443840000000     0.452570000000    -0.164982   
N34      N      0.111620000000     0.399300000000     0.427330000000    -0.233782   
N35      N      0.238560000000     0.279720000000     0.367860000000    -0.165693   
N36      N      0.279790000000     0.236060000000     0.340470000000    -0.235559   
N37      N      0.486270000000     0.479130000000     0.389780000000    -0.166508   
N38      N      0.485530000000     0.480500000000     0.322720000000    -0.236178   
N39      N      0.534780000000     0.533230000000     0.072720000000    -0.166232   
N40      N      0.536380000000     0.533020000000     0.139780000000    -0.236889   
N41      N      0.870640000000     0.200450000000     0.405870000000    -0.163765   
N42      N      0.871650000000     0.198800000000     0.472930000000    -0.235924   
N43      N      0.818350000000     0.148170000000     0.155880000000    -0.166666   
N44      N      0.820250000000     0.146860000000     0.222930000000    -0.23668    
N45      N      0.150640000000     0.338560000000     0.239630000000    -0.164983   
N46      N      0.150710000000     0.341560000000     0.306680000000    -0.235096   
N47      N      0.203310000000     0.340350000000     0.056620000000    -0.165857   
N48      N      0.201050000000     0.337330000000     0.989550000000    -0.236722   
N49      N      0.053990000000     0.281690000000     0.119210000000    -0.165372   
N50      N      0.968070000000     0.239170000000     0.093470000000    -0.233336   
N51      N      0.387340000000     0.441050000000     0.202640000000    -0.164502   
N52      N      0.301250000000     0.397450000000     0.177160000000    -0.234862   
N53      N      0.537580000000     0.009590000000     0.388860000000    -0.165921   
N54      N      0.535050000000     0.007310000000     0.321810000000    -0.235601   
N55      N      0.483500000000     0.005200000000     0.071680000000    -0.166001   
N56      N      0.483250000000     0.006750000000     0.138750000000    -0.235794   
N57      N      0.720870000000     0.107490000000     0.035360000000    -0.166908   
N58      N      0.634810000000     0.064280000000     0.009810000000    -0.234753   
N59      N      0.195950000000     0.866420000000     0.240980000000    -0.167863   
N60      N      0.199180000000     0.867670000000     0.307670000000    -0.239701   
N61      N      0.159730000000     0.831390000000     0.991330000000    -0.170801   
N62      N      0.162710000000     0.826540000000     0.057340000000    -0.236044   
N63      N      0.388080000000     0.951990000000     0.451040000000    -0.165288   
N64      N      0.301890000000     0.911280000000     0.425870000000    -0.233886   
N65      N      0.817160000000     0.676160000000     0.407010000000    -0.166802   
N66      N      0.820490000000     0.677890000000     0.474070000000    -0.236844   
N67      N      0.872620000000     0.682620000000     0.224230000000    -0.166693   
N68      N      0.873320000000     0.680020000000     0.157130000000    -0.236529   
N69      N      0.720920000000     0.618180000000     0.285680000000    -0.166037   
N70      N      0.634900000000     0.572980000000     0.260050000000    -0.233975   
N71      N      0.052610000000     0.784200000000     0.372800000000    -0.16648    
N72      N      0.967220000000     0.740170000000     0.346150000000    -0.235855   
N73      N      0.736380000000     0.964120000000     0.869710000000    -0.165545   
N74      N      0.780640000000     0.050120000000     0.843870000000    -0.234498   
N75      N      0.954600000000     0.383960000000     0.760170000000    -0.165929   
N76      N      0.911520000000     0.297700000000     0.785490000000    -0.235126   
N77      N      0.115500000000     0.717310000000     0.675560000000    -0.16582    
N78      N      0.074020000000     0.631260000000     0.701270000000    -0.234116   
N79      N      0.574240000000     0.629770000000     0.952510000000    -0.165427   
N80      N      0.616500000000     0.716180000000     0.927310000000    -0.233786   
N81      N      0.274650000000     0.047240000000     0.590960000000    -0.168706   
N82      N      0.233730000000     0.964350000000     0.619670000000    -0.233626   
N83      N      0.400100000000     0.294400000000     0.533450000000    -0.165279   
N84      N      0.445630000000     0.381510000000     0.509600000000    -0.235176   
N85      N      0.679360000000     0.816710000000     0.740090000000    -0.166467   
N86      N      0.675930000000     0.814190000000     0.807110000000    -0.237836   
N87      N      0.675240000000     0.866150000000     0.557100000000    -0.165838   
N88      N      0.676870000000     0.866580000000     0.490030000000    -0.23528    
N89      N      0.738400000000     0.778800000000     0.619720000000    -0.16628    
N90      N      0.782920000000     0.737400000000     0.594080000000    -0.235404   
N91      N      0.617170000000     0.905010000000     0.677080000000    -0.165316   
N92      N      0.573010000000     0.947170000000     0.702040000000    -0.234703   
N93      N      0.011950000000     0.534580000000     0.889540000000    -0.165162   
N94      N      0.015730000000     0.535070000000     0.822480000000    -0.235446   
N95      N      0.012020000000     0.480970000000     0.639580000000    -0.165245   
N96      N      0.014290000000     0.483710000000     0.572530000000    -0.235404   
N97      N      0.912170000000     0.619050000000     0.536730000000    -0.165012   
N98      N      0.953940000000     0.574990000000     0.510710000000    -0.235478   
N99      N      0.334260000000     0.144110000000     0.969580000000    -0.165483   
N100     N      0.338190000000     0.145710000000     0.902620000000    -0.236001   
N101     N      0.341340000000     0.197470000000     0.652700000000    -0.166095   
N102     N      0.339850000000     0.197650000000     0.719700000000    -0.236205   
N103     N      0.399400000000     0.108130000000     0.783220000000    -0.16316    
N104     N      0.444020000000     0.066290000000     0.758510000000    -0.234223   
N105     N      0.070020000000     0.443840000000     0.952570000000    -0.164953   
N106     N      0.111620000000     0.399300000000     0.927330000000    -0.233809   
N107     N      0.238560000000     0.279720000000     0.867860000000    -0.165692   
N108     N      0.279790000000     0.236060000000     0.840470000000    -0.235555   
N109     N      0.486270000000     0.479130000000     0.889780000000    -0.166556   
N110     N      0.485530000000     0.480500000000     0.822720000000    -0.236166   
N111     N      0.534780000000     0.533230000000     0.572720000000    -0.166242   
N112     N      0.536380000000     0.533020000000     0.639780000000    -0.236858   
N113     N      0.870640000000     0.200450000000     0.905870000000    -0.163798   
N114     N      0.871650000000     0.198800000000     0.972930000000    -0.235954   
N115     N      0.818350000000     0.148170000000     0.655880000000    -0.166659   
N116     N      0.820250000000     0.146860000000     0.722930000000    -0.236601   
N117     N      0.150640000000     0.338560000000     0.739630000000    -0.164947   
N118     N      0.150710000000     0.341560000000     0.806680000000    -0.235178   
N119     N      0.203310000000     0.340360000000     0.556620000000    -0.165893   
N120     N      0.201050000000     0.337330000000     0.489550000000    -0.23665    
N121     N      0.053990000000     0.281690000000     0.619210000000    -0.165411   
N122     N      0.968070000000     0.239170000000     0.593470000000    -0.233336   
N123     N      0.387340000000     0.441050000000     0.702650000000    -0.164526   
N124     N      0.301250000000     0.397450000000     0.677160000000    -0.234914   
N125     N      0.537580000000     0.009590000000     0.888870000000    -0.166037   
N126     N      0.535050000000     0.007310000000     0.821810000000    -0.23557    
N127     N      0.483500000000     0.005200000000     0.571680000000    -0.166059   
N128     N      0.483250000000     0.006750000000     0.638750000000    -0.235765   
N129     N      0.720870000000     0.107490000000     0.535360000000    -0.16691    
N130     N      0.634810000000     0.064280000000     0.509810000000    -0.234773   
N131     N      0.195950000000     0.866420000000     0.740980000000    -0.167891   
N132     N      0.199180000000     0.867670000000     0.807670000000    -0.239788   
N133     N      0.159730000000     0.831390000000     0.491330000000    -0.17078    
N134     N      0.162710000000     0.826540000000     0.557340000000    -0.236062   
N135     N      0.388080000000     0.951990000000     0.951030000000    -0.165254   
N136     N      0.301890000000     0.911280000000     0.925870000000    -0.233946   
N137     N      0.817160000000     0.676160000000     0.907010000000    -0.166799   
N138     N      0.820490000000     0.677890000000     0.974070000000    -0.236827   
N139     N      0.872620000000     0.682620000000     0.724230000000    -0.166672   
N140     N      0.873320000000     0.680020000000     0.657130000000    -0.23654    
N141     N      0.720920000000     0.618180000000     0.785670000000    -0.165995   
N142     N      0.634900000000     0.572980000000     0.760040000000    -0.233877   
N143     N      0.052610000000     0.784210000000     0.872800000000    -0.16653    
N144     N      0.967220000000     0.740160000000     0.846150000000    -0.235897   
O1       O      0.859070000000     0.649450000000     0.274030000000    -0.548425   
O2       O      0.824860000000     0.643100000000     0.361600000000    -0.543553   
O3       O      0.782370000000     0.617240000000     0.304840000000    -0.552066   
O4       O      0.903080000000     0.676290000000     0.330980000000    -0.512889   
O5       O      0.906250000000     0.741830000000     0.326270000000    -0.555273   
O6       O      0.785030000000     0.682610000000     0.300200000000    -0.543622   
O7       O      0.829600000000     0.709510000000     0.357230000000    -0.548098   
O8       O      0.863470000000     0.715660000000     0.269320000000    -0.541864   
O9       O      0.161030000000     0.804070000000     0.441740000000    -0.551173   
O10      O      0.195020000000     0.829550000000     0.353870000000    -0.518511   
O11      O      0.238510000000     0.847570000000     0.410360000000    -0.552367   
O12      O      0.117610000000     0.785620000000     0.385340000000    -0.550167   
O13      O      0.114110000000     0.847660000000     0.391840000000    -0.549118   
O14      O      0.238070000000     0.911610000000     0.410540000000    -0.508761   
O15      O      0.187320000000     0.889640000000     0.356740000000    -0.562203   
O16      O      0.165380000000     0.870410000000     0.445960000000    -0.55285    
O17      O      0.523780000000     0.976210000000     0.438620000000    -0.543615   
O18      O      0.491090000000     0.971540000000     0.026480000000    -0.540576   
O19      O      0.447740000000     0.947280000000     0.469940000000    -0.549615   
O20      O      0.568910000000     0.001440000000     0.995370000000    -0.506393   
O21      O      0.574780000000     0.068210000000     0.990910000000    -0.560602   
O22      O      0.454040000000     0.014280000000     0.465240000000    -0.542356   
O23      O      0.498610000000     0.039140000000     0.022070000000    -0.549708   
O24      O      0.531660000000     0.043960000000     0.434260000000    -0.542981   
O25      O      0.158080000000     0.304210000000     0.194700000000    -0.543681   
O26      O      0.190030000000     0.307680000000     0.106670000000    -0.542534   
O27      O      0.235580000000     0.334210000000     0.163180000000    -0.510659   
O28      O      0.114270000000     0.278450000000     0.138350000000    -0.551392   
O29      O      0.119480000000     0.344910000000     0.133090000000    -0.54055    
O30      O      0.240750000000     0.400620000000     0.158200000000    -0.55708    
O31      O      0.197040000000     0.375010000000     0.101750000000    -0.545997   
O32      O      0.164740000000     0.371370000000     0.189640000000    -0.544819   
O33      O      0.864110000000     0.157230000000     0.018010000000    -0.516083   
O34      O      0.831590000000     0.128750000000     0.105890000000    -0.548963   
O35      O      0.786340000000     0.109720000000     0.049260000000    -0.543176   
O36      O      0.907610000000     0.175430000000     0.074490000000    -0.549086   
O37      O      0.902520000000     0.236720000000     0.079320000000    -0.509366   
O38      O      0.781320000000     0.171090000000     0.054320000000    -0.555728   
O39      O      0.825010000000     0.189310000000     0.110740000000    -0.546801   
O40      O      0.857300000000     0.217650000000     0.022770000000    -0.55067    
O41      O      0.530310000000     0.491620000000     0.184540000000    -0.553334   
O42      O      0.498780000000     0.461980000000     0.272370000000    -0.510834   
O43      O      0.453020000000     0.443520000000     0.216080000000    -0.54196    
O44      O      0.574450000000     0.509310000000     0.240720000000    -0.505864   
O45      O      0.569130000000     0.570340000000     0.246460000000    -0.549876   
O46      O      0.447680000000     0.504630000000     0.221830000000    -0.542249   
O47      O      0.491830000000     0.522200000000     0.278030000000    -0.553038   
O48      O      0.523330000000     0.551840000000     0.190120000000    -0.516914   
O49      O      0.191880000000     0.375410000000     0.351880000000    -0.517564   
O50      O      0.220270000000     0.370320000000     0.439640000000    -0.558278   
O51      O      0.238110000000     0.343560000000     0.382800000000    -0.547362   
O52      O      0.174720000000     0.401310000000     0.408500000000    -0.551479   
O53      O      0.112870000000     0.335500000000     0.413300000000    -0.508125   
O54      O      0.176170000000     0.277760000000     0.387910000000    -0.54754    
O55      O      0.159120000000     0.303770000000     0.444510000000    -0.51365    
O56      O      0.130900000000     0.308710000000     0.356620000000    -0.547608   
O57      O      0.373350000000     0.187640000000     0.358030000000    -0.520174   
O58      O      0.371440000000     0.216980000000     0.270080000000    -0.516428   
O59      O      0.343280000000     0.234780000000     0.326280000000    -0.554242   
O60      O      0.400910000000     0.170930000000     0.302120000000    -0.535156   
O61      O      0.335250000000     0.109080000000     0.296180000000    -0.544552   
O62      O      0.277560000000     0.173140000000     0.320460000000    -0.516463   
O63      O      0.304840000000     0.156140000000     0.264410000000    -0.555517   
O64      O      0.306770000000     0.126770000000     0.352300000000    -0.5486     
O65      O      0.044040000000     0.554410000000     0.439700000000    -0.546437   
O66      O      0.047920000000     0.525820000000     0.027600000000    -0.517371   
O67      O      0.073480000000     0.507820000000     0.471220000000    -0.542858   
O68      O      0.017330000000     0.573200000000     0.996340000000    -0.550415   
O69      O      0.951330000000     0.511780000000     0.991130000000    -0.517683   
O70      O      0.007170000000     0.446500000000     0.466270000000    -0.545406   
O71      O      0.980920000000     0.465340000000     0.022720000000    -0.547942   
O72      O      0.977080000000     0.493830000000     0.434720000000    -0.545868   
O73      O      0.708420000000     0.886180000000     0.106930000000    -0.547345   
O74      O      0.713040000000     0.858630000000     0.195070000000    -0.545559   
O75      O      0.739640000000     0.841430000000     0.138800000000    -0.55161    
O76      O      0.681150000000     0.904410000000     0.163340000000    -0.546198   
O77      O      0.615720000000     0.841970000000     0.158590000000    -0.547492   
O78      O      0.674240000000     0.779060000000     0.133600000000    -0.546579   
O79      O      0.646940000000     0.796920000000     0.190090000000    -0.547217   
O80      O      0.642000000000     0.824790000000     0.102270000000    -0.54484    
O81      O      0.892760000000     0.711100000000     0.106530000000    -0.512632   
O82      O      0.863110000000     0.712740000000     0.018530000000    -0.553603   
O83      O      0.846070000000     0.739900000000     0.074610000000    -0.507541   
O84      O      0.910800000000     0.682960000000     0.050240000000    -0.547547   
O85      O      0.849390000000     0.616920000000     0.056210000000    -0.543847   
O86      O      0.784860000000     0.673860000000     0.080640000000    -0.554985   
O87      O      0.802610000000     0.645920000000     0.024430000000    -0.516897   
O88      O      0.832370000000     0.644180000000     0.112340000000    -0.55611    
O89      O      0.553710000000     0.039030000000     0.271440000000    -0.51342    
O90      O      0.524560000000     0.041540000000     0.183610000000    -0.555354   
O91      O      0.507330000000     0.068500000000     0.239690000000    -0.507072   
O92      O      0.571490000000     0.011050000000     0.215250000000    -0.554945   
O93      O      0.510010000000     0.945210000000     0.221160000000    -0.507637   
O94      O      0.445790000000     0.002610000000     0.245210000000    -0.553085   
O95      O      0.463950000000     0.974730000000     0.189080000000    -0.510878   
O96      O      0.492870000000     0.972460000000     0.277170000000    -0.550671   
O97      O      0.300710000000     0.151290000000     0.015200000000    -0.543702   
O98      O      0.308330000000     0.186030000000     0.103000000000    -0.546587   
O99      O      0.335230000000     0.229940000000     0.046090000000    -0.544261   
O100     O      0.274270000000     0.109120000000     0.072830000000    -0.550556   
O101     O      0.338570000000     0.109070000000     0.074270000000    -0.541876   
O102     O      0.399990000000     0.231840000000     0.051860000000    -0.546383   
O103     O      0.372630000000     0.186520000000     0.107510000000    -0.546246   
O104     O      0.367130000000     0.156300000000     0.019210000000    -0.549718   
O105     O      0.493340000000     0.524820000000     0.027490000000    -0.545079   
O106     O      0.466190000000     0.492340000000     0.439510000000    -0.550421   
O107     O      0.447460000000     0.446950000000     0.995970000000    -0.553696   
O108     O      0.511200000000     0.568490000000     0.471160000000    -0.549531   
O109     O      0.573220000000     0.564790000000     0.466480000000    -0.54465    
O110     O      0.509350000000     0.443100000000     0.991510000000    -0.511861   
O111     O      0.527290000000     0.486820000000     0.435100000000    -0.541503   
O112     O      0.554550000000     0.519500000000     0.023040000000    -0.544366   
O113     O      0.133510000000     0.827200000000     0.106390000000    -0.547179   
O114     O      0.155080000000     0.857470000000     0.195310000000    -0.550718   
O115     O      0.172810000000     0.903430000000     0.140280000000    -0.552385   
O116     O      0.114230000000     0.780920000000     0.162100000000    -0.552036   
O117     O      0.178170000000     0.780700000000     0.158200000000    -0.550404   
O118     O      0.236940000000     0.903290000000     0.136250000000    -0.531607   
O119     O      0.218320000000     0.855670000000     0.191740000000    -0.56176    
O120     O      0.198890000000     0.829450000000     0.103240000000    -0.542037   
O121     O      0.983270000000     0.521670000000     0.272460000000    -0.554567   
O122     O      0.978390000000     0.488300000000     0.184800000000    -0.550697   
O123     O      0.952410000000     0.445100000000     0.241350000000    -0.553425   
O124     O      0.010390000000     0.566430000000     0.215700000000    -0.551398   
O125     O      0.076050000000     0.570310000000     0.220980000000    -0.505956   
O126     O      0.018160000000     0.448920000000     0.246170000000    -0.543035   
O127     O      0.045060000000     0.494030000000     0.189500000000    -0.540197   
O128     O      0.049640000000     0.526860000000     0.277530000000    -0.510825   
O129     O      0.829570000000     0.193400000000     0.360690000000    -0.547916   
O130     O      0.801220000000     0.160670000000     0.272850000000    -0.555497   
O131     O      0.782500000000     0.115460000000     0.329520000000    -0.548891   
O132     O      0.847700000000     0.237000000000     0.304190000000    -0.557965   
O133     O      0.908910000000     0.231960000000     0.299430000000    -0.511458   
O134     O      0.843830000000     0.110730000000     0.324440000000    -0.510685   
O135     O      0.861750000000     0.154280000000     0.268010000000    -0.51354    
O136     O      0.890000000000     0.186760000000     0.355970000000    -0.534505   
O137     O      0.641460000000     0.821370000000     0.351950000000    -0.518035   
O138     O      0.644850000000     0.853740000000     0.439770000000    -0.509754   
O139     O      0.672420000000     0.899180000000     0.383320000000    -0.545694   
O140     O      0.614710000000     0.777570000000     0.408240000000    -0.49913    
O141     O      0.680300000000     0.781340000000     0.413640000000    -0.552462   
O142     O      0.738070000000     0.903010000000     0.389030000000    -0.551091   
O143     O      0.711200000000     0.859020000000     0.445240000000    -0.554189   
O144     O      0.708050000000     0.827100000000     0.357260000000    -0.557184   
O145     O      0.859070000000     0.649450000000     0.774030000000    -0.548414   
O146     O      0.824860000000     0.643100000000     0.861590000000    -0.543711   
O147     O      0.782370000000     0.617240000000     0.804840000000    -0.552176   
O148     O      0.903080000000     0.676300000000     0.830980000000    -0.512986   
O149     O      0.906250000000     0.741830000000     0.826270000000    -0.555385   
O150     O      0.785030000000     0.682610000000     0.800200000000    -0.543476   
O151     O      0.829600000000     0.709510000000     0.857230000000    -0.547994   
O152     O      0.863480000000     0.715670000000     0.769320000000    -0.541691   
O153     O      0.161030000000     0.804070000000     0.941740000000    -0.551206   
O154     O      0.195020000000     0.829550000000     0.853880000000    -0.518725   
O155     O      0.238510000000     0.847580000000     0.910370000000    -0.552576   
O156     O      0.117610000000     0.785620000000     0.885350000000    -0.550284   
O157     O      0.114120000000     0.847660000000     0.891840000000    -0.549288   
O158     O      0.238070000000     0.911610000000     0.910540000000    -0.508865   
O159     O      0.187320000000     0.889640000000     0.856740000000    -0.56202    
O160     O      0.165380000000     0.870420000000     0.945960000000    -0.552678   
O161     O      0.523780000000     0.976210000000     0.938620000000    -0.543637   
O162     O      0.491090000000     0.971550000000     0.526480000000    -0.540774   
O163     O      0.447740000000     0.947280000000     0.969940000000    -0.549603   
O164     O      0.568910000000     0.001440000000     0.495370000000    -0.506376   
O165     O      0.574780000000     0.068210000000     0.490900000000    -0.560619   
O166     O      0.454040000000     0.014280000000     0.965240000000    -0.542328   
O167     O      0.498610000000     0.039140000000     0.522070000000    -0.549838   
O168     O      0.531660000000     0.043960000000     0.934260000000    -0.543003   
O169     O      0.158080000000     0.304210000000     0.694700000000    -0.543704   
O170     O      0.190030000000     0.307680000000     0.606680000000    -0.542673   
O171     O      0.235580000000     0.334210000000     0.663180000000    -0.510703   
O172     O      0.114270000000     0.278450000000     0.638350000000    -0.551423   
O173     O      0.119480000000     0.344910000000     0.633090000000    -0.540565   
O174     O      0.240750000000     0.400620000000     0.658200000000    -0.557062   
O175     O      0.197040000000     0.375010000000     0.601750000000    -0.545969   
O176     O      0.164740000000     0.371380000000     0.689640000000    -0.544694   
O177     O      0.864110000000     0.157230000000     0.518010000000    -0.516196   
O178     O      0.831590000000     0.128750000000     0.605890000000    -0.548971   
O179     O      0.786340000000     0.109720000000     0.549260000000    -0.543184   
O180     O      0.907610000000     0.175430000000     0.574490000000    -0.549093   
O181     O      0.902520000000     0.236720000000     0.579320000000    -0.509362   
O182     O      0.781320000000     0.171090000000     0.554320000000    -0.555725   
O183     O      0.825010000000     0.189310000000     0.610740000000    -0.54679    
O184     O      0.857300000000     0.217650000000     0.522770000000    -0.550578   
O185     O      0.530310000000     0.491620000000     0.684540000000    -0.553302   
O186     O      0.498780000000     0.461980000000     0.772370000000    -0.510714   
O187     O      0.453010000000     0.443520000000     0.716080000000    -0.541962   
O188     O      0.574450000000     0.509310000000     0.740720000000    -0.505768   
O189     O      0.569130000000     0.570350000000     0.746460000000    -0.549718   
O190     O      0.447680000000     0.504630000000     0.721830000000    -0.542306   
O191     O      0.491830000000     0.522200000000     0.778030000000    -0.553144   
O192     O      0.523330000000     0.551840000000     0.690120000000    -0.516915   
O193     O      0.191880000000     0.375410000000     0.851880000000    -0.51762    
O194     O      0.220270000000     0.370320000000     0.939640000000    -0.558316   
O195     O      0.238110000000     0.343560000000     0.882800000000    -0.547377   
O196     O      0.174720000000     0.401310000000     0.908490000000    -0.551497   
O197     O      0.112870000000     0.335500000000     0.913300000000    -0.508118   
O198     O      0.176170000000     0.277760000000     0.887910000000    -0.547534   
O199     O      0.159120000000     0.303770000000     0.944510000000    -0.513658   
O200     O      0.130900000000     0.308710000000     0.856620000000    -0.547538   
O201     O      0.373350000000     0.187640000000     0.858040000000    -0.520051   
O202     O      0.371440000000     0.216980000000     0.770080000000    -0.516347   
O203     O      0.343280000000     0.234780000000     0.826280000000    -0.554152   
O204     O      0.400920000000     0.170930000000     0.802120000000    -0.534888   
O205     O      0.335250000000     0.109080000000     0.796180000000    -0.54453    
O206     O      0.277560000000     0.173140000000     0.820460000000    -0.516465   
O207     O      0.304840000000     0.156140000000     0.764410000000    -0.555526   
O208     O      0.306770000000     0.126770000000     0.852300000000    -0.548711   
O209     O      0.044040000000     0.554410000000     0.939700000000    -0.546485   
O210     O      0.047920000000     0.525820000000     0.527600000000    -0.517334   
O211     O      0.073480000000     0.507830000000     0.971220000000    -0.542876   
O212     O      0.017330000000     0.573200000000     0.496340000000    -0.550372   
O213     O      0.951330000000     0.511780000000     0.491130000000    -0.517674   
O214     O      0.007170000000     0.446500000000     0.966270000000    -0.545347   
O215     O      0.980920000000     0.465340000000     0.522720000000    -0.548002   
O216     O      0.977090000000     0.493830000000     0.934720000000    -0.545971   
O217     O      0.708420000000     0.886190000000     0.606930000000    -0.547275   
O218     O      0.713040000000     0.858630000000     0.695070000000    -0.545545   
O219     O      0.739640000000     0.841430000000     0.638800000000    -0.551713   
O220     O      0.681150000000     0.904410000000     0.663340000000    -0.546183   
O221     O      0.615720000000     0.841970000000     0.658590000000    -0.547489   
O222     O      0.674240000000     0.779060000000     0.633600000000    -0.546592   
O223     O      0.646940000000     0.796920000000     0.690090000000    -0.547208   
O224     O      0.642000000000     0.824790000000     0.602270000000    -0.544766   
O225     O      0.892760000000     0.711100000000     0.606530000000    -0.512644   
O226     O      0.863110000000     0.712730000000     0.518530000000    -0.55368    
O227     O      0.846070000000     0.739910000000     0.574610000000    -0.507327   
O228     O      0.910800000000     0.682960000000     0.550240000000    -0.547472   
O229     O      0.849390000000     0.616920000000     0.556210000000    -0.543793   
O230     O      0.784860000000     0.673860000000     0.580640000000    -0.555028   
O231     O      0.802610000000     0.645930000000     0.524440000000    -0.516987   
O232     O      0.832370000000     0.644180000000     0.612340000000    -0.556333   
O233     O      0.553710000000     0.039030000000     0.771440000000    -0.513569   
O234     O      0.524560000000     0.041540000000     0.683610000000    -0.555368   
O235     O      0.507340000000     0.068500000000     0.739690000000    -0.507125   
O236     O      0.571480000000     0.011050000000     0.715250000000    -0.555144   
O237     O      0.510010000000     0.945210000000     0.721160000000    -0.507626   
O238     O      0.445790000000     0.002610000000     0.745210000000    -0.55302    
O239     O      0.463950000000     0.974720000000     0.689080000000    -0.510773   
O240     O      0.492870000000     0.972460000000     0.777170000000    -0.550724   
O241     O      0.300710000000     0.151290000000     0.515200000000    -0.543679   
O242     O      0.308330000000     0.186030000000     0.603000000000    -0.546592   
O243     O      0.335230000000     0.229940000000     0.546080000000    -0.544209   
O244     O      0.274270000000     0.109120000000     0.572830000000    -0.550542   
O245     O      0.338570000000     0.109070000000     0.574270000000    -0.541878   
O246     O      0.399990000000     0.231840000000     0.551860000000    -0.546389   
O247     O      0.372630000000     0.186520000000     0.607510000000    -0.54625    
O248     O      0.367130000000     0.156300000000     0.519210000000    -0.549718   
O249     O      0.493340000000     0.524820000000     0.527490000000    -0.54513    
O250     O      0.466190000000     0.492340000000     0.939510000000    -0.550177   
O251     O      0.447460000000     0.446950000000     0.495970000000    -0.553745   
O252     O      0.511200000000     0.568490000000     0.971150000000    -0.549521   
O253     O      0.573220000000     0.564790000000     0.966470000000    -0.54471    
O254     O      0.509350000000     0.443100000000     0.491510000000    -0.512033   
O255     O      0.527290000000     0.486810000000     0.935100000000    -0.541265   
O256     O      0.554550000000     0.519500000000     0.523040000000    -0.544409   
O257     O      0.133500000000     0.827200000000     0.606390000000    -0.546998   
O258     O      0.155080000000     0.857470000000     0.695310000000    -0.550666   
O259     O      0.172810000000     0.903430000000     0.640280000000    -0.552473   
O260     O      0.114230000000     0.780920000000     0.662100000000    -0.55203    
O261     O      0.178170000000     0.780700000000     0.658200000000    -0.550457   
O262     O      0.236940000000     0.903290000000     0.636250000000    -0.531634   
O263     O      0.218320000000     0.855680000000     0.691730000000    -0.562013   
O264     O      0.198890000000     0.829450000000     0.603240000000    -0.542036   
O265     O      0.983270000000     0.521670000000     0.772460000000    -0.554635   
O266     O      0.978390000000     0.488300000000     0.684800000000    -0.550812   
O267     O      0.952410000000     0.445100000000     0.741340000000    -0.553481   
O268     O      0.010390000000     0.566430000000     0.715700000000    -0.551484   
O269     O      0.076050000000     0.570320000000     0.720980000000    -0.505874   
O270     O      0.018160000000     0.448920000000     0.746170000000    -0.543047   
O271     O      0.045060000000     0.494040000000     0.689500000000    -0.540308   
O272     O      0.049640000000     0.526860000000     0.777530000000    -0.510838   
O273     O      0.829570000000     0.193400000000     0.860690000000    -0.547987   
O274     O      0.801220000000     0.160670000000     0.772850000000    -0.555414   
O275     O      0.782500000000     0.115460000000     0.829520000000    -0.548914   
O276     O      0.847700000000     0.237000000000     0.804190000000    -0.557966   
O277     O      0.908910000000     0.231960000000     0.799430000000    -0.511411   
O278     O      0.843830000000     0.110730000000     0.824450000000    -0.510648   
O279     O      0.861750000000     0.154280000000     0.768010000000    -0.513593   
O280     O      0.890000000000     0.186770000000     0.855980000000    -0.534453   
O281     O      0.641460000000     0.821370000000     0.851950000000    -0.517906   
O282     O      0.644850000000     0.853740000000     0.939770000000    -0.510048   
O283     O      0.672420000000     0.899180000000     0.883320000000    -0.545692   
O284     O      0.614710000000     0.777570000000     0.908240000000    -0.499212   
O285     O      0.680300000000     0.781340000000     0.913640000000    -0.552508   
O286     O      0.738070000000     0.903010000000     0.889030000000    -0.551128   
O287     O      0.711200000000     0.859020000000     0.945240000000    -0.554136   
O288     O      0.708050000000     0.827100000000     0.857260000000    -0.55721    
V1       V      0.842350000000     0.644020000000     0.318080000000     1.43644    
V2       V      0.846060000000     0.714960000000     0.313000000000     1.38794    
V3       V      0.178130000000     0.814160000000     0.397660000000     1.43434    
V4       V      0.176010000000     0.882340000000     0.401440000000     1.42677    
V5       V      0.507770000000     0.971520000000     0.482830000000     1.42825    
V6       V      0.514930000000     0.043990000000     0.977900000000     1.41466    
V7       V      0.174410000000     0.303570000000     0.150980000000     1.41652    
V8       V      0.180620000000     0.375560000000     0.145420000000     1.41612    
V9       V      0.847490000000     0.140290000000     0.061660000000     1.41849    
V10      V      0.841430000000     0.206160000000     0.067030000000     1.4197     
V11      V      0.514250000000     0.474140000000     0.228150000000     1.44677    
V12      V      0.507890000000     0.539730000000     0.234390000000     1.42065    
V13      V      0.208760000000     0.375210000000     0.395480000000     1.41407    
V14      V      0.142250000000     0.303890000000     0.400850000000     1.45133    
V15      V      0.374780000000     0.205090000000     0.314400000000     1.45565    
V16      V      0.303540000000     0.138770000000     0.308030000000     1.41843    
V17      V      0.048260000000     0.542850000000     0.483960000000     1.41464    
V18      V      0.976550000000     0.476920000000     0.978460000000     1.43237    
V19      V      0.713110000000     0.875200000000     0.151290000000     1.41089    
V20      V      0.642200000000     0.808160000000     0.145900000000     1.42461    
V21      V      0.880700000000     0.714230000000     0.062180000000     1.42915    
V22      V      0.814860000000     0.642650000000     0.068680000000     1.42504    
V23      V      0.541760000000     0.042590000000     0.227230000000     1.43455    
V24      V      0.475650000000     0.971190000000     0.233440000000     1.44529    
V25      V      0.302080000000     0.169090000000     0.058960000000     1.41066    
V26      V      0.372080000000     0.170860000000     0.063490000000     1.41534    
V27      V      0.477040000000     0.508180000000     0.983770000000     1.40831    
V28      V      0.543620000000     0.503500000000     0.478810000000     1.43005    
V29      V      0.141220000000     0.842110000000     0.151160000000     1.40944    
V30      V      0.210580000000     0.842220000000     0.147340000000     1.47374    
V31      V      0.978580000000     0.505350000000     0.228340000000     1.40487    
V32      V      0.049770000000     0.510050000000     0.233810000000     1.4445     
V33      V      0.812750000000     0.176720000000     0.317050000000     1.40421    
V34      V      0.878590000000     0.170850000000     0.311710000000     1.45831    
V35      V      0.640810000000     0.837920000000     0.395550000000     1.4567     
V36      V      0.711950000000     0.842650000000     0.401560000000     1.40102    
V37      V      0.842340000000     0.644020000000     0.818080000000     1.43669    
V38      V      0.846070000000     0.714960000000     0.813000000000     1.38768    
V39      V      0.178130000000     0.814160000000     0.897660000000     1.4347     
V40      V      0.176010000000     0.882340000000     0.901440000000     1.42689    
V41      V      0.507770000000     0.971520000000     0.982830000000     1.4282     
V42      V      0.514930000000     0.043990000000     0.477900000000     1.41482    
V43      V      0.174410000000     0.303570000000     0.650980000000     1.41697    
V44      V      0.180620000000     0.375570000000     0.645420000000     1.41607    
V45      V      0.847490000000     0.140290000000     0.561660000000     1.41853    
V46      V      0.841430000000     0.206160000000     0.567030000000     1.41965    
V47      V      0.514250000000     0.474140000000     0.728150000000     1.44652    
V48      V      0.507890000000     0.539730000000     0.734390000000     1.4207     
V49      V      0.208760000000     0.375210000000     0.895480000000     1.41418    
V50      V      0.142250000000     0.303890000000     0.900850000000     1.45127    
V51      V      0.374780000000     0.205090000000     0.814400000000     1.45509    
V52      V      0.303540000000     0.138770000000     0.808030000000     1.41853    
V53      V      0.048260000000     0.542850000000     0.983960000000     1.41481    
V54      V      0.976550000000     0.476920000000     0.478460000000     1.43242    
V55      V      0.713110000000     0.875200000000     0.651290000000     1.41084    
V56      V      0.642200000000     0.808160000000     0.645900000000     1.42458    
V57      V      0.880700000000     0.714230000000     0.562180000000     1.42895    
V58      V      0.814860000000     0.642650000000     0.568690000000     1.42537    
V59      V      0.541760000000     0.042590000000     0.727230000000     1.43497    
V60      V      0.475650000000     0.971190000000     0.733440000000     1.44518    
V61      V      0.302080000000     0.169090000000     0.558960000000     1.41056    
V62      V      0.372080000000     0.170860000000     0.563490000000     1.41535    
V63      V      0.477040000000     0.508180000000     0.483770000000     1.40856    
V64      V      0.543620000000     0.503510000000     0.978810000000     1.4298     
V65      V      0.141220000000     0.842110000000     0.651160000000     1.40933    
V66      V      0.210580000000     0.842220000000     0.647340000000     1.47402    
V67      V      0.978580000000     0.505350000000     0.728340000000     1.40523    
V68      V      0.049780000000     0.510050000000     0.733810000000     1.44446    
V69      V      0.812750000000     0.176720000000     0.817050000000     1.40428    
V70      V      0.878590000000     0.170850000000     0.811710000000     1.45798    
V71      V      0.640810000000     0.837920000000     0.895560000000     1.45693    
V72      V      0.711960000000     0.842650000000     0.901560000000     1.40105    


