data_structure

_audit_creation_method RASPA-1.0
_audit_creation_date 2023-6-5
_audit_author_name 'Poobodin Mano'

_cell_length_a    48.8748
_cell_length_b    48.681
_cell_length_c    29.375
_cell_angle_alpha 89.9828
_cell_angle_beta  90.017
_cell_angle_gamma 119.97
_cell_volume      60545.8

_symmetry_cell_setting          triclinic
_symmetry_space_group_name_Hall 'P 1'
_symmetry_space_group_name_H-M  'P 1'
_symmetry_Int_Tables_number     1

_symmetry_equiv_pos_as_xyz 'x,y,z'

loop_
_atom_site_label
_atom_site_type_symbol
_atom_site_fract_x
_atom_site_fract_y
_atom_site_fract_z
_atom_site_charge
C1       C      0.849240000000     0.673810000000     0.565580000000     0.477727   
C2       C      0.819400000000     0.667990000000     0.732620000000     0.481586   
C3       C      0.776510000000     0.642150000000     0.625450000000     0.477648   
C4       C      0.892010000000     0.699380000000     0.672340000000     0.478213   
C5       C      0.154620000000     0.826510000000     0.890010000000     0.481372   
C6       C      0.185110000000     0.849020000000     0.723070000000     0.475892   
C7       C      0.228140000000     0.866040000000     0.829600000000     0.48069    
C8       C      0.112740000000     0.810340000000     0.781900000000     0.480372   
C9       C      0.518030000000     0.006490000000     0.884640000000     0.477537   
C10      C      0.491590000000     0.001670000000     0.052960000000     0.481312   
C11      C      0.446530000000     0.976050000000     0.947960000000     0.476159   
C12      C      0.563160000000     0.031750000000     0.988360000000     0.481229   
C13      C      0.152180000000     0.327430000000     0.390590000000     0.481802   
C14      C      0.185690000000     0.338010000000     0.224490000000     0.480192   
C15      C      0.226660000000     0.361720000000     0.332040000000     0.48076    
C16      C      0.111830000000     0.303610000000     0.281730000000     0.477911   
C17      C      0.826480000000     0.157430000000     0.203870000000     0.483539   
C18      C      0.856090000000     0.178410000000     0.036720000000     0.479167   
C19      C      0.899480000000     0.197060000000     0.142930000000     0.4817     
C20      C      0.783700000000     0.139550000000     0.097630000000     0.478502   
C21      C      0.517060000000     0.515060000000     0.393660000000     0.478476   
C22      C      0.486530000000     0.493950000000     0.560580000000     0.482638   
C23      C      0.444250000000     0.474920000000     0.453610000000     0.477619   
C24      C      0.559870000000     0.534390000000     0.500100000000     0.481029   
C25      C      0.152190000000     0.329200000000     0.723460000000     0.478031   
C26      C      0.175710000000     0.328910000000     0.891830000000     0.477845   
C27      C      0.194820000000     0.301430000000     0.788790000000     0.482432   
C28      C      0.132710000000     0.356650000000     0.826540000000     0.481643   
C29      C      0.338270000000     0.155650000000     0.720760000000     0.481585   
C30      C      0.330140000000     0.178620000000     0.553990000000     0.478124   
C31      C      0.305480000000     0.196290000000     0.661630000000     0.479665   
C32      C      0.362780000000     0.138250000000     0.613290000000     0.47886    
C33      C      0.997010000000     0.508720000000     0.894800000000     0.476807   
C34      C      0.000310000000     0.482980000000     0.061870000000     0.481121   
C35      C      0.024960000000     0.464340000000     0.954910000000     0.47818    
C36      C      0.972660000000     0.527780000000     0.000810000000     0.482499   
C37      C      0.678950000000     0.856010000000     0.230080000000     0.483666   
C38      C      0.688390000000     0.839640000000     0.398710000000     0.479784   
C39      C      0.712310000000     0.817510000000     0.293550000000     0.479254   
C40      C      0.654940000000     0.876880000000     0.334470000000     0.479423   
C41      C      0.856280000000     0.672210000000     0.232720000000     0.481856   
C42      C      0.831140000000     0.674620000000     0.065240000000     0.477031   
C43      C      0.816230000000     0.704210000000     0.170130000000     0.481419   
C44      C      0.871200000000     0.642770000000     0.127000000000     0.478795   
C45      C      0.521660000000     0.004120000000     0.551790000000     0.480764   
C46      C      0.496690000000     0.013150000000     0.386290000000     0.477527   
C47      C      0.478320000000     0.034850000000     0.497330000000     0.482688   
C48      C      0.540440000000     0.983490000000     0.441630000000     0.481461   
C49      C      0.331380000000     0.153900000000     0.053810000000     0.476749   
C50      C      0.337390000000     0.182920000000     0.221180000000     0.48156    
C51      C      0.362010000000     0.226270000000     0.115060000000     0.478364   
C52      C      0.306380000000     0.109940000000     0.159550000000     0.481785   
C53      C      0.513220000000     0.517380000000     0.061150000000     0.482034   
C54      C      0.491040000000     0.490930000000     0.893180000000     0.478597   
C55      C      0.471910000000     0.445130000000     0.996930000000     0.482431   
C56      C      0.532160000000     0.562410000000     0.957530000000     0.481137   
C57      C      0.156240000000     0.820000000000     0.222960000000     0.477473   
C58      C      0.179040000000     0.849530000000     0.390200000000     0.481793   
C59      C      0.196830000000     0.892360000000     0.283620000000     0.478042   
C60      C      0.137920000000     0.776100000000     0.329040000000     0.48134    
C61      C      0.999840000000     0.515900000000     0.561780000000     0.480342   
C62      C      0.995680000000     0.486250000000     0.394860000000     0.477694   
C63      C      0.969180000000     0.443250000000     0.502380000000     0.481357   
C64      C      0.026390000000     0.559040000000     0.454720000000     0.47798    
C65      C      0.827340000000     0.148090000000     0.536220000000     0.48026    
C66      C      0.847760000000     0.174430000000     0.704380000000     0.483044   
C67      C      0.864520000000     0.219260000000     0.600580000000     0.477432   
C68      C      0.810220000000     0.102020000000     0.640040000000     0.477772   
C69      C      0.681690000000     0.853380000000     0.897590000000     0.480296   
C70      C      0.674650000000     0.828290000000     0.730370000000     0.488857   
C71      C      0.645550000000     0.780550000000     0.836890000000     0.480322   
C72      C      0.708240000000     0.894860000000     0.786850000000     0.484876   
C73      C      0.751650000000     0.947260000000     0.777500000000     0.151372   
C74      C      0.711880000000     0.923000000000     0.719820000000     0.0455571  
C75      C      0.766650000000     0.975300000000     0.751920000000    -0.12353    
C76      C      0.800130000000     0.025830000000     0.678300000000    -0.0896316  
C77      C      0.726280000000     0.951240000000     0.694550000000    -0.0850546  
C78      C      0.767660000000     0.008670000000     0.686980000000     0.0306239  
C79      C      0.753480000000     0.977780000000     0.711010000000     0.0429357  
C80      C      0.813770000000     0.056580000000     0.660830000000     0.0723125  
C81      C      0.763830000000     0.053560000000     0.659710000000     0.0722111  
C82      C      0.749330000000     0.022510000000     0.676380000000    -0.0889027  
C83      C      0.765960000000     0.946520000000     0.822900000000    -0.218369   
C84      C      0.925230000000     0.398960000000     0.540260000000     0.149567   
C85      C      0.968010000000     0.394420000000     0.510120000000     0.077095   
C86      C      0.910500000000     0.367070000000     0.554250000000    -0.125114   
C87      C      0.875620000000     0.295950000000     0.562880000000    -0.0875553  
C88      C      0.953530000000     0.362660000000     0.523170000000    -0.0987054  
C89      C      0.908670000000     0.314500000000     0.560500000000     0.0274271  
C90      C      0.924380000000     0.348430000000     0.545620000000     0.0483962  
C91      C      0.861320000000     0.264440000000     0.577390000000     0.0711848  
C92      C      0.911350000000     0.268380000000     0.585810000000     0.0720027  
C93      C      0.926470000000     0.300220000000     0.572670000000    -0.0870209  
C94      C      0.909570000000     0.417840000000     0.554040000000    -0.211872   
C95      C      0.133630000000     0.724340000000     0.337370000000     0.149736   
C96      C      0.094090000000     0.734430000000     0.366630000000     0.0766603  
C97      C      0.117770000000     0.693860000000     0.356940000000    -0.125602   
C98      C      0.090180000000     0.637700000000     0.420880000000    -0.0876142  
C99      C      0.078040000000     0.704310000000     0.386090000000    -0.0994729  
C100     C      0.073230000000     0.651410000000     0.402790000000     0.027511   
C101     C      0.089950000000     0.683660000000     0.381900000000     0.0488107  
C102     C      0.074170000000     0.607000000000     0.438720000000     0.0717098  
C103     C      0.024900000000     0.603350000000     0.423060000000     0.0716385  
C104     C      0.040150000000     0.633840000000     0.404460000000    -0.0872315  
C105     C      0.162300000000     0.732400000000     0.308360000000    -0.212478   
C106     C      0.580400000000     0.613050000000     0.950870000000     0.15084    
C107     C      0.531500000000     0.605830000000     0.922990000000     0.0764309  
C108     C      0.596010000000     0.643840000000     0.932490000000    -0.126092   
C109     C      0.627280000000     0.700930000000     0.871670000000    -0.0876784  
C110     C      0.546610000000     0.636180000000     0.904150000000    -0.0995552  
C111     C      0.596150000000     0.687930000000     0.887450000000     0.0275968  
C112     C      0.579350000000     0.655560000000     0.908140000000     0.0487207  
C113     C      0.643290000000     0.731770000000     0.854530000000     0.0726501  
C114     C      0.597980000000     0.736860000000     0.865120000000     0.0720338  
C115     C      0.581500000000     0.706350000000     0.883580000000    -0.0875679  
C116     C      0.599930000000     0.603050000000     0.979000000000    -0.214003   
C117     C      0.303980000000     0.059270000000     0.169000000000     0.151393   
C118     C      0.262790000000     0.067570000000     0.196040000000     0.077625   
C119     C      0.288460000000     0.028590000000     0.187950000000    -0.125938   
C120     C      0.260550000000     0.970470000000     0.247710000000    -0.0868639  
C121     C      0.247340000000     0.037500000000     0.215610000000    -0.099865   
C122     C      0.243560000000     0.984950000000     0.232390000000     0.0264275  
C123     C      0.260070000000     0.017460000000     0.211970000000     0.0499535  
C124     C      0.244600000000     0.939600000000     0.264950000000     0.0718243  
C125     C      0.195450000000     0.937400000000     0.255150000000     0.0715039  
C126     C      0.210530000000     0.967840000000     0.236500000000    -0.0874172  
C127     C      0.333560000000     0.068660000000     0.141440000000    -0.214566   
C128     C      0.467100000000     0.393050000000     0.001430000000     0.150461   
C129     C      0.428060000000     0.402840000000     0.033540000000     0.0768756  
C130     C      0.451410000000     0.362290000000     0.019930000000    -0.126178   
C131     C      0.424970000000     0.305600000000     0.082480000000    -0.0880393  
C132     C      0.412120000000     0.372370000000     0.051930000000    -0.099531   
C133     C      0.407630000000     0.319320000000     0.065930000000     0.0274876  
C134     C      0.423960000000     0.351790000000     0.045880000000     0.0490032  
C135     C      0.409370000000     0.274660000000     0.099370000000     0.0714387  
C136     C      0.359740000000     0.270760000000     0.085850000000     0.0719395  
C137     C      0.374590000000     0.301520000000     0.068220000000    -0.0874565  
C138     C      0.495260000000     0.401460000000     0.971060000000    -0.212634   
C139     C      0.675970000000     0.855170000000     0.660820000000     0.15296    
C140     C      0.685720000000     0.811520000000     0.662210000000     0.0810652  
C141     C      0.679750000000     0.856670000000     0.613110000000    -0.127318   
C142     C      0.710700000000     0.862030000000     0.517570000000    -0.0889312  
C143     C      0.688760000000     0.812350000000     0.615140000000    -0.102045   
C144     C      0.687560000000     0.835270000000     0.540200000000     0.0275284  
C145     C      0.685470000000     0.834840000000     0.590250000000     0.0506093  
C146     C      0.711540000000     0.862460000000     0.470100000000     0.0727065  
C147     C      0.666990000000     0.810580000000     0.467290000000     0.0723693  
C148     C      0.665970000000     0.809080000000     0.514770000000    -0.0887495  
C149     C      0.670260000000     0.880690000000     0.683140000000    -0.244649   
C150     C      0.650180000000     0.842520000000     0.158400000000     0.150805   
C151     C      0.704820000000     0.881380000000     0.161890000000     0.0769791  
C152     C      0.651510000000     0.844460000000     0.110620000000    -0.126849   
C153     C      0.706790000000     0.863610000000     0.016740000000    -0.0883021  
C154     C      0.706470000000     0.883840000000     0.114650000000    -0.10095    
C155     C      0.681880000000     0.864890000000     0.038150000000     0.027351   
C156     C      0.679860000000     0.864730000000     0.088460000000     0.049398   
C157     C      0.706890000000     0.860740000000     0.969500000000     0.0714491  
C158     C      0.659130000000     0.862050000000     0.964000000000     0.0715206  
C159     C      0.658180000000     0.864680000000     0.011190000000    -0.0887678  
C160     C      0.618080000000     0.821410000000     0.179580000000    -0.212669   
C161     C      0.813690000000     0.752720000000     0.176090000000     0.149318   
C162     C      0.774680000000     0.704670000000     0.210390000000     0.0766916  
C163     C      0.799340000000     0.768760000000     0.195760000000    -0.125675   
C164     C      0.774730000000     0.801080000000     0.258190000000    -0.087385   
C165     C      0.760190000000     0.720150000000     0.230130000000    -0.0994776  
C166     C      0.756990000000     0.769450000000     0.243700000000     0.0275534  
C167     C      0.772530000000     0.752640000000     0.223300000000     0.0485223  
C168     C      0.759520000000     0.816730000000     0.275470000000     0.0714681  
C169     C      0.709710000000     0.770270000000     0.266320000000     0.0725336  
C170     C      0.724070000000     0.754100000000     0.248290000000    -0.0879398  
C171     C      0.841230000000     0.771600000000     0.144270000000    -0.212159   
C172     C      0.584530000000     0.986400000000     0.399480000000     0.149731   
C173     C      0.545790000000     0.938140000000     0.433780000000     0.0762748  
C174     C      0.600970000000     0.971230000000     0.384550000000    -0.126055   
C175     C      0.640080000000     0.939250000000     0.375800000000    -0.0877028  
C176     C      0.561800000000     0.922760000000     0.419260000000    -0.100182   
C177     C      0.606980000000     0.923110000000     0.377890000000     0.0274791  
C178     C      0.589780000000     0.939250000000     0.394360000000     0.0487488  
C179     C      0.655750000000     0.923690000000     0.360180000000     0.0719794  
C180     C      0.606850000000     0.876440000000     0.349050000000     0.0719805  
C181     C      0.590430000000     0.891380000000     0.363800000000    -0.0885397  
C182     C      0.597110000000     0.020320000000     0.383940000000    -0.211483   
C183     C      0.975310000000     0.522190000000     0.630600000000     0.146811   
C184     C      0.025160000000     0.524610000000     0.633290000000     0.0750842  
C185     C      0.974960000000     0.522990000000     0.678550000000    -0.125904   
C186     C      0.024470000000     0.542320000000     0.781060000000    -0.0883783  
C187     C      0.025490000000     0.526190000000     0.680650000000    -0.09983    
C188     C      0.998260000000     0.522370000000     0.754300000000     0.0273593  
C189     C      0.999810000000     0.524420000000     0.703860000000     0.0484785  
C190     C      0.023270000000     0.538210000000     0.828260000000     0.070584   
C191     C      0.970670000000     0.495400000000     0.823140000000     0.071404   
C192     C      0.970940000000     0.499130000000     0.775980000000    -0.0879981  
C193     C      0.947600000000     0.521520000000     0.606410000000    -0.209842   
C194     C      0.975440000000     0.451940000000     0.130430000000     0.148516   
C195     C      0.025290000000     0.499490000000     0.133660000000     0.0754713  
C196     C      0.974660000000     0.450800000000     0.178360000000    -0.12639    
C197     C      0.023230000000     0.479870000000     0.281390000000    -0.0884997  
C198     C      0.025280000000     0.498160000000     0.181050000000    -0.100142   
C199     C      0.997480000000     0.474550000000     0.254320000000     0.0274594  
C200     C      0.999360000000     0.474230000000     0.203930000000     0.0488786  
C201     C      0.021760000000     0.482470000000     0.328600000000     0.0714288  
C202     C      0.969840000000     0.474340000000     0.322820000000     0.0718787  
C203     C      0.970340000000     0.471130000000     0.275630000000    -0.0879416  
C204     C      0.948180000000     0.424570000000     0.105910000000    -0.210492   
C205     C      0.972170000000     0.576980000000     0.010300000000     0.151702   
C206     C      0.930220000000     0.528130000000     0.038270000000     0.0776016  
C207     C      0.957800000000     0.593060000000     0.029740000000    -0.125793   
C208     C      0.932520000000     0.625300000000     0.090040000000    -0.0870393  
C209     C      0.915930000000     0.543680000000     0.058410000000    -0.0995955  
C210     C      0.914420000000     0.593660000000     0.075610000000     0.0276125  
C211     C      0.929650000000     0.576620000000     0.054600000000     0.0490143  
C212     C      0.917750000000     0.641310000000     0.107450000000     0.072241   
C213     C      0.867630000000     0.595040000000     0.099910000000     0.0722834  
C214     C      0.881520000000     0.578630000000     0.081040000000    -0.0874054  
C215     C      0.001560000000     0.596330000000     0.981910000000    -0.214883   
C216     C      0.366210000000     0.167700000000     0.793140000000     0.150452   
C217     C      0.311760000000     0.128670000000     0.787950000000     0.0760888  
C218     C      0.364270000000     0.165200000000     0.840900000000    -0.126059   
C219     C      0.357470000000     0.145620000000     0.940270000000    -0.0879774  
C220     C      0.309550000000     0.125510000000     0.835190000000    -0.0999069  
C221     C      0.333130000000     0.143690000000     0.912840000000     0.0272093  
C222     C      0.335730000000     0.144490000000     0.862340000000     0.0489856  
C223     C      0.355980000000     0.147900000000     0.987500000000     0.0708374  
C224     C      0.306290000000     0.145090000000     0.981420000000     0.071293   
C225     C      0.307010000000     0.142730000000     0.934080000000    -0.0874094  
C226     C      0.398570000000     0.189170000000     0.772980000000    -0.212243   
C227     C      0.364890000000     0.199120000000     0.293800000000     0.150572   
C228     C      0.310270000000     0.182750000000     0.287970000000     0.0760506  
C229     C      0.362760000000     0.199890000000     0.341490000000    -0.126206   
C230     C      0.355210000000     0.213240000000     0.440350000000    -0.0879975  
C231     C      0.307830000000     0.183800000000     0.335170000000    -0.100145   
C232     C      0.331330000000     0.190120000000     0.413030000000     0.0274707  
C233     C      0.334040000000     0.191670000000     0.362580000000     0.0490818  
C234     C      0.353810000000     0.209660000000     0.487610000000     0.0719947  
C235     C      0.305060000000     0.161540000000     0.481730000000     0.0720992  
C236     C      0.305660000000     0.164450000000     0.434370000000    -0.0874068  
C237     C      0.397410000000     0.210460000000     0.273950000000    -0.212526   
C238     C      0.477460000000     0.076110000000     0.541810000000     0.150924   
C239     C      0.430380000000     0.034660000000     0.508720000000     0.0774017  
C240     C      0.460430000000     0.090220000000     0.558230000000    -0.126116   
C241     C      0.425760000000     0.125850000000     0.569250000000    -0.0881447  
C242     C      0.413110000000     0.048540000000     0.524400000000    -0.0987503  
C243     C      0.410540000000     0.092720000000     0.565640000000     0.0277368  
C244     C      0.428140000000     0.076900000000     0.549110000000     0.048939   
C245     C      0.409610000000     0.140490000000     0.586110000000     0.0720738  
C246     C      0.362910000000     0.090690000000     0.594090000000     0.0719868  
C247     C      0.378650000000     0.075150000000     0.578410000000    -0.0870317  
C248     C      0.511700000000     0.090890000000     0.556400000000    -0.212085   
C249     C      0.127330000000     0.403500000000     0.832520000000     0.150827   
C250     C      0.088350000000     0.353940000000     0.863120000000     0.0768352  
C251     C      0.111750000000     0.418170000000     0.852460000000    -0.126357   
C252     C      0.086530000000     0.446990000000     0.919270000000    -0.0880363  
C253     C      0.072430000000     0.368040000000     0.882810000000    -0.0993876  
C254     C      0.068620000000     0.416520000000     0.900810000000     0.0274865  
C255     C      0.084440000000     0.400650000000     0.878520000000     0.0490639  
C256     C      0.071540000000     0.462310000000     0.938100000000     0.0718758  
C257     C      0.021360000000     0.417610000000     0.922940000000     0.0712012  
C258     C      0.035620000000     0.401690000000     0.903430000000    -0.0874377  
C259     C      0.155340000000     0.423880000000     0.802210000000    -0.212703   
C260     C      0.200560000000     0.254760000000     0.783560000000     0.151      
C261     C      0.238610000000     0.303970000000     0.750890000000     0.0773484  
C262     C      0.216220000000     0.240080000000     0.763840000000    -0.126232   
C263     C      0.242190000000     0.210750000000     0.698710000000    -0.08774    
C264     C      0.254520000000     0.289870000000     0.731290000000    -0.0995523  
C265     C      0.259440000000     0.241810000000     0.715480000000     0.0278982  
C266     C      0.243130000000     0.257450000000     0.736950000000     0.0492852  
C267     C      0.257900000000     0.196040000000     0.680150000000     0.0722325  
C268     C      0.307350000000     0.242370000000     0.692610000000     0.0727559  
C269     C      0.292430000000     0.257660000000     0.711860000000    -0.0877052  
C270     C      0.173030000000     0.234650000000     0.814790000000    -0.213027   
C271     C      0.471150000000     0.506840000000     0.632790000000     0.150525   
C272     C      0.485300000000     0.466700000000     0.627810000000     0.0765604  
C273     C      0.470330000000     0.504210000000     0.680530000000    -0.126322   
C274     C      0.456860000000     0.483740000000     0.779830000000    -0.0883336  
C275     C      0.484160000000     0.463480000000     0.674960000000    -0.100576   
C276     C      0.479360000000     0.482090000000     0.752290000000     0.0275604  
C277     C      0.477500000000     0.482940000000     0.701950000000     0.0492671  
C278     C      0.460540000000     0.485560000000     0.827060000000     0.0716967  
C279     C      0.507690000000     0.483230000000     0.820510000000     0.0718604  
C280     C      0.504650000000     0.481200000000     0.773220000000    -0.0883177  
C281     C      0.461210000000     0.529120000000     0.612490000000    -0.212424   
C282     C      0.502470000000     0.534120000000     0.133720000000     0.149735   
C283     C      0.539870000000     0.516510000000     0.127850000000     0.075513   
C284     C      0.505590000000     0.535080000000     0.181350000000    -0.126535   
C285     C      0.527240000000     0.499720000000     0.274590000000    -0.0878676  
C286     C      0.543630000000     0.517820000000     0.174970000000    -0.100554   
C287     C      0.527370000000     0.525370000000     0.252770000000     0.0274154  
C288     C      0.525860000000     0.526450000000     0.202360000000     0.0488831  
C289     C      0.525040000000     0.497240000000     0.321980000000     0.0718261  
C290     C      0.524740000000     0.545700000000     0.326800000000     0.0714685  
C291     C      0.526930000000     0.548930000000     0.279560000000    -0.0887595  
C292     C      0.481700000000     0.546060000000     0.113940000000    -0.211884   
C293     C      0.835740000000     0.190470000000     0.776660000000     0.150791   
C294     C      0.875980000000     0.176630000000     0.770920000000     0.0766579  
C295     C      0.839680000000     0.192780000000     0.824190000000    -0.1265     
C296     C      0.862940000000     0.210110000000     0.921670000000    -0.0884314  
C297     C      0.880440000000     0.179200000000     0.817900000000    -0.10043    
C298     C      0.864080000000     0.186680000000     0.895510000000     0.0274883  
C299     C      0.861750000000     0.186670000000     0.845170000000     0.0493743  
C300     C      0.861710000000     0.207760000000     0.969070000000     0.0711936  
C301     C      0.864050000000     0.160320000000     0.965360000000     0.0722161  
C302     C      0.865490000000     0.162040000000     0.917940000000    -0.0881042  
C303     C      0.812740000000     0.199530000000     0.756770000000    -0.212441   
C304     C      0.811600000000     0.170070000000     0.276730000000     0.150519   
C305     C      0.824800000000     0.129290000000     0.270260000000     0.0771421  
C306     C      0.810280000000     0.166520000000     0.324360000000    -0.126609   
C307     C      0.794610000000     0.142730000000     0.422370000000    -0.0886882  
C308     C      0.823310000000     0.125280000000     0.317230000000    -0.101087   
C309     C      0.817900000000     0.142450000000     0.395070000000     0.0278049  
C310     C      0.816750000000     0.144490000000     0.344880000000     0.0495636  
C311     C      0.797470000000     0.143270000000     0.469660000000     0.0724293  
C312     C      0.845440000000     0.142440000000     0.463510000000     0.0729093  
C313     C      0.843160000000     0.141590000000     0.416140000000    -0.0880611  
C314     C      0.802590000000     0.193280000000     0.257300000000    -0.212911   
C315     C      0.139960000000     0.347800000000     0.458880000000     0.149535   
C316     C      0.144360000000     0.301280000000     0.461480000000     0.0755716  
C317     C      0.138400000000     0.347660000000     0.506710000000    -0.126728   
C318     C      0.163290000000     0.353800000000     0.603960000000    -0.088498   
C319     C      0.141720000000     0.300190000000     0.508820000000    -0.0997108  
C320     C      0.141250000000     0.325800000000     0.582320000000     0.027489   
C321     C      0.139860000000     0.324170000000     0.531950000000     0.0490527  
C322     C      0.166170000000     0.354670000000     0.651240000000     0.0718265  
C323     C      0.124700000000     0.301280000000     0.656510000000     0.0715149  
C324     C      0.121630000000     0.299390000000     0.609080000000    -0.0881197  
C325     C      0.135930000000     0.373010000000     0.434550000000    -0.210955   
C326     C      0.200810000000     0.366330000000     0.152300000000     0.149871   
C327     C      0.186760000000     0.312040000000     0.157040000000     0.0754085  
C328     C      0.200750000000     0.364430000000     0.104490000000    -0.126093   
C329     C      0.164770000000     0.306420000000     0.012350000000    -0.0876845  
C330     C      0.187090000000     0.309860000000     0.109750000000    -0.100117   
C331     C      0.190160000000     0.333050000000     0.032460000000     0.0272785  
C332     C      0.193130000000     0.335910000000     0.082840000000     0.0487527  
C333     C      0.160720000000     0.305080000000     0.965190000000     0.0711463  
C334     C      0.206940000000     0.355290000000     0.957000000000     0.0712614  
C335     C      0.211630000000     0.357440000000     0.004090000000    -0.0878646  
C336     C      0.211310000000     0.398640000000     0.172740000000    -0.212322   
C337     C      0.950240000000     0.244630000000     0.153510000000     0.151149   
C338     C      0.940670000000     0.194670000000     0.181280000000     0.0770345  
C339     C      0.980080000000     0.259410000000     0.174630000000    -0.125793   
C340     C      0.035070000000     0.288930000000     0.239520000000    -0.0871427  
C341     C      0.969990000000     0.208940000000     0.202890000000    -0.0991497  
C342     C      0.021550000000     0.257610000000     0.223630000000     0.0272975  
C343     C      0.990110000000     0.241790000000     0.200310000000     0.049025   
C344     C      0.065110000000     0.303850000000     0.259250000000     0.0718668  
C345     C      0.068200000000     0.257100000000     0.250940000000     0.0719384  
C346     C      0.038610000000     0.241730000000     0.229930000000    -0.087288   
C347     C      0.942120000000     0.265210000000     0.124300000000    -0.213919   
C348     C      0.277700000000     0.365360000000     0.341230000000     0.150295   
C349     C      0.268430000000     0.406010000000     0.368560000000     0.0762531  
C350     C      0.308320000000     0.381520000000     0.359860000000    -0.125367   
C351     C      0.366390000000     0.410340000000     0.419020000000    -0.0870632  
C352     C      0.298540000000     0.422140000000     0.387740000000    -0.0994762  
C353     C      0.351530000000     0.427020000000     0.403940000000     0.0272627  
C354     C      0.319020000000     0.409970000000     0.383860000000     0.0484215  
C355     C      0.397290000000     0.426690000000     0.435660000000     0.0719023  
C356     C      0.398860000000     0.475740000000     0.425780000000     0.0710315  
C357     C      0.368310000000     0.460210000000     0.407780000000    -0.0873868  
C358     C      0.268930000000     0.335870000000     0.313480000000    -0.213821   
C359     C      0.510730000000     0.975010000000     0.622940000000     0.14983    
C360     C      0.547520000000     0.030350000000     0.619760000000     0.0744347  
C361     C      0.512310000000     0.976220000000     0.670750000000    -0.127138   
C362     C      0.530750000000     0.032210000000     0.765410000000    -0.0875707  
C363     C      0.549910000000     0.031880000000     0.667150000000    -0.100512   
C364     C      0.530920000000     0.006610000000     0.743920000000     0.027644   
C365     C      0.531430000000     0.004860000000     0.693330000000     0.0492447  
C366     C      0.527290000000     0.032200000000     0.812610000000     0.0714438  
C367     C      0.525200000000     0.982620000000     0.818250000000     0.0700076  
C368     C      0.528710000000     0.981920000000     0.771120000000    -0.0886897  
C369     C      0.491270000000     0.942580000000     0.601490000000    -0.211751   
C370     C      0.477720000000     0.975330000000     0.126820000000     0.14908    
C371     C      0.492220000000     0.029630000000     0.119240000000     0.0756357  
C372     C      0.477330000000     0.978220000000     0.174470000000    -0.126741   
C373     C      0.463250000000     0.986280000000     0.272560000000    -0.088975   
C374     C      0.491540000000     0.032780000000     0.166360000000    -0.100215   
C375     C      0.485850000000     0.010480000000     0.245090000000     0.0276365  
C376     C      0.484640000000     0.007120000000     0.194650000000     0.0491761  
C377     C      0.466480000000     0.988280000000     0.319850000000     0.0708685  
C378     C      0.513070000000     0.038370000000     0.313830000000     0.070202   
C379     C      0.510520000000     0.037150000000     0.266340000000    -0.0879382  
C380     C      0.467480000000     0.942590000000     0.108170000000    -0.211972   
C381     C      0.613560000000     0.033610000000     0.993230000000     0.150484   
C382     C      0.606940000000     0.075550000000     0.022300000000     0.0769381  
C383     C      0.644740000000     0.048930000000     0.009850000000    -0.125382   
C384     C      0.704510000000     0.076380000000     0.065340000000    -0.087063   
C385     C      0.637610000000     0.090860000000     0.039550000000    -0.099339   
C386     C      0.690100000000     0.093810000000     0.051740000000     0.0273882  
C387     C      0.657040000000     0.077610000000     0.033740000000     0.0485215  
C388     C      0.735800000000     0.091990000000     0.080510000000     0.0718506  
C389     C      0.738700000000     0.141750000000     0.071720000000     0.0714242  
C390     C      0.707800000000     0.126970000000     0.055180000000    -0.0876867  
C391     C      0.602920000000     0.003760000000     0.965420000000    -0.212465   
C392     C      0.168010000000     0.866480000000     0.462550000000     0.150023   
C393     C      0.206410000000     0.850180000000     0.456980000000     0.075999   
C394     C      0.171380000000     0.867970000000     0.510220000000    -0.126045   
C395     C      0.194200000000     0.833740000000     0.603540000000    -0.087956   
C396     C      0.210360000000     0.851960000000     0.504090000000    -0.10009    
C397     C      0.193790000000     0.859150000000     0.581860000000     0.0271109  
C398     C      0.192190000000     0.860140000000     0.531390000000     0.0488315  
C399     C      0.192450000000     0.831330000000     0.650930000000     0.0710371  
C400     C      0.191540000000     0.879450000000     0.656220000000     0.0698212  
C401     C      0.193110000000     0.882510000000     0.608850000000    -0.0883664  
C402     C      0.146400000000     0.877320000000     0.442570000000    -0.212329   
C403     C      0.138870000000     0.838520000000     0.962630000000     0.14963    
C404     C      0.153250000000     0.798600000000     0.956690000000     0.0756901  
C405     C      0.137590000000     0.835200000000     0.010320000000    -0.125888   
C406     C      0.170760000000     0.810780000000     0.103110000000    -0.0878958  
C407     C      0.151700000000     0.794730000000     0.003800000000    -0.10027    
C408     C      0.145770000000     0.811990000000     0.081730000000     0.0272428  
C409     C      0.144600000000     0.813660000000     0.031290000000     0.0486494  
C410     C      0.173300000000     0.812330000000     0.150510000000     0.071184   
C411     C      0.126100000000     0.814610000000     0.156340000000     0.0713687  
C412     C      0.122940000000     0.813280000000     0.108990000000    -0.0882515  
C413     C      0.129050000000     0.861030000000     0.942880000000    -0.212037   
C414     C      0.279130000000     0.868960000000     0.837650000000     0.149508   
C415     C      0.270460000000     0.909610000000     0.866720000000     0.0764796  
C416     C      0.309810000000     0.884670000000     0.856210000000    -0.125533   
C417     C      0.367110000000     0.912490000000     0.917500000000    -0.0877078  
C418     C      0.300750000000     0.925460000000     0.885290000000    -0.0993687  
C419     C      0.353390000000     0.929660000000     0.900200000000     0.0270746  
C420     C      0.320860000000     0.913000000000     0.880540000000     0.048633   
C421     C      0.398060000000     0.928380000000     0.933950000000     0.0710478  
C422     C      0.402020000000     0.978030000000     0.918740000000     0.0703881  
C423     C      0.371260000000     0.962890000000     0.901420000000    -0.0868216  
C424     C      0.270110000000     0.839620000000     0.809380000000    -0.212547   
C425     C      0.812690000000     0.692080000000     0.801560000000     0.1492     
C426     C      0.812140000000     0.642920000000     0.804240000000     0.0756081  
C427     C      0.813250000000     0.693120000000     0.849470000000    -0.126673   
C428     C      0.841010000000     0.698230000000     0.945220000000    -0.0881901  
C429     C      0.811520000000     0.643060000000     0.851690000000    -0.0999109  
C430     C      0.816370000000     0.671160000000     0.924930000000     0.027225   
C431     C      0.813230000000     0.668870000000     0.874730000000     0.0489375  
C432     C      0.845300000000     0.699240000000     0.992320000000     0.0710899  
C433     C      0.800270000000     0.648040000000     0.999910000000     0.0712765  
C434     C      0.795710000000     0.645980000000     0.952790000000    -0.0884226  
C435     C      0.810860000000     0.718620000000     0.777410000000    -0.210832   
C436     C      0.886050000000     0.697890000000     0.301880000000     0.148719   
C437     C      0.840090000000     0.646670000000     0.304160000000     0.075952   
C438     C      0.886880000000     0.698270000000     0.349850000000    -0.125962   
C439     C      0.865150000000     0.700640000000     0.446970000000    -0.087812   
C440     C      0.841080000000     0.646390000000     0.351520000000    -0.0999181  
C441     C      0.863130000000     0.674090000000     0.425310000000     0.0275415  
C442     C      0.864050000000     0.672720000000     0.374920000000     0.048898   
C443     C      0.861150000000     0.700450000000     0.494070000000     0.0720637  
C444     C      0.854920000000     0.649020000000     0.499110000000     0.0718937  
C445     C      0.858370000000     0.648250000000     0.451990000000    -0.0882753  
C446     C      0.912290000000     0.726500000000     0.277930000000    -0.211196   
C447     C      0.610540000000     0.582430000000     0.509180000000     0.150722   
C448     C      0.601860000000     0.532870000000     0.537330000000     0.0770021  
C449     C      0.641050000000     0.597470000000     0.528290000000    -0.125276   
C450     C      0.698870000000     0.627920000000     0.588110000000    -0.0870267  
C451     C      0.631800000000     0.547410000000     0.557070000000    -0.0991084  
C452     C      0.684300000000     0.596180000000     0.573730000000     0.0275072  
C453     C      0.651950000000     0.580180000000     0.553020000000     0.048584   
C454     C      0.729600000000     0.642870000000     0.605490000000     0.0718727  
C455     C      0.731510000000     0.595440000000     0.597800000000     0.0718612  
C456     C      0.701190000000     0.580030000000     0.579020000000    -0.0872091  
C457     C      0.601480000000     0.602660000000     0.480850000000    -0.213932   
C458     C      0.070230000000     0.811940000000     0.741810000000     0.149133   
C459     C      0.063290000000     0.763740000000     0.773050000000     0.0764223  
C460     C      0.038750000000     0.795800000000     0.726490000000    -0.125157   
C461     C      0.968330000000     0.762210000000     0.714730000000    -0.0878079  
C462     C      0.031880000000     0.747450000000     0.758660000000    -0.0987033  
C463     C      0.985590000000     0.746360000000     0.718600000000     0.0278067  
C464     C      0.019080000000     0.763370000000     0.734990000000     0.0479282  
C465     C      0.937410000000     0.746340000000     0.698260000000     0.0719747  
C466     C      0.939210000000     0.698820000000     0.691060000000     0.0720635  
C467     C      0.970530000000     0.714220000000     0.706210000000    -0.0871333  
C468     C      0.090250000000     0.846430000000     0.728050000000    -0.211997   
H1       H      0.839100000000     0.069210000000     0.655430000000     0.0211282  
H2       H      0.691520000000     0.901440000000     0.702520000000     0.069468   
H3       H      0.724140000000     0.009970000000     0.682870000000     0.048885   
H4       H      0.716410000000     0.952280000000     0.662000000000     0.0444122  
H5       H      0.815000000000     0.015760000000     0.685840000000     0.0483176  
H6       H      0.787910000000     0.995660000000     0.764810000000     0.0571038  
H7       H      0.748930000000     0.063770000000     0.653210000000     0.0213332  
H8       H      0.776950000000     0.931400000000     0.820300000000     0.0810041  
H9       H      0.784510000000     0.970570000000     0.833840000000     0.0675298  
H10      H      0.747570000000     0.937110000000     0.849840000000     0.0773031  
H11      H      0.835730000000     0.251090000000     0.578470000000     0.0196944  
H12      H      0.990390000000     0.404080000000     0.492330000000     0.0191312  
H13      H      0.952020000000     0.313500000000     0.572630000000     0.0476478  
H14      H      0.965130000000     0.349310000000     0.514820000000     0.0504547  
H15      H      0.860600000000     0.305360000000     0.552930000000     0.0457418  
H16      H      0.888570000000     0.357170000000     0.573150000000     0.0555991  
H17      H      0.926110000000     0.258380000000     0.594680000000     0.021877   
H18      H      0.898660000000     0.422280000000     0.523850000000     0.0769136  
H19      H      0.890570000000     0.405080000000     0.579580000000     0.0637346  
H20      H      0.927050000000     0.440600000000     0.570050000000     0.0771962  
H21      H      0.088300000000     0.597280000000     0.451850000000     0.0207338  
H22      H      0.084060000000     0.749630000000     0.372170000000     0.0200298  
H23      H      0.025940000000     0.643170000000     0.390480000000     0.0476879  
H24      H      0.056730000000     0.697660000000     0.405330000000     0.050747   
H25      H      0.115750000000     0.650570000000     0.421430000000     0.0464851  
H26      H      0.126820000000     0.677810000000     0.351690000000     0.0563212  
H27      H      0.999290000000     0.590520000000     0.423000000000     0.021556   
H28      H      0.184190000000     0.748860000000     0.327060000000     0.0778383  
H29      H      0.163800000000     0.710980000000     0.299580000000     0.0646066  
H30      H      0.161010000000     0.743040000000     0.275560000000     0.0798698  
H31      H      0.667460000000     0.740910000000     0.843360000000     0.0209148  
H32      H      0.506220000000     0.591530000000     0.917630000000     0.0185469  
H33      H      0.557670000000     0.697730000000     0.895730000000     0.0460305  
H34      H      0.532560000000     0.643870000000     0.885410000000     0.0494246  
H35      H      0.639420000000     0.687460000000     0.872370000000     0.0473128  
H36      H      0.621140000000     0.658830000000     0.938120000000     0.0571263  
H37      H      0.585850000000     0.750370000000     0.863430000000     0.0204082  
H38      H      0.605460000000     0.587220000000     0.958670000000     0.0789476  
H39      H      0.622680000000     0.623760000000     0.989910000000     0.0664046  
H40      H      0.587170000000     0.590910000000     0.010620000000     0.0793985  
H41      H      0.258690000000     0.929260000000     0.275830000000     0.0210656  
H42      H      0.252090000000     0.082250000000     0.200900000000     0.0189317  
H43      H      0.196080000000     0.977420000000     0.224480000000     0.0459423  
H44      H      0.225800000000     0.030490000000     0.234410000000     0.0498917  
H45      H      0.286090000000     0.982820000000     0.246680000000     0.0469115  
H46      H      0.298280000000     0.013210000000     0.182850000000     0.0574777  
H47      H      0.169880000000     0.925060000000     0.257120000000     0.019977   
H48      H      0.354760000000     0.085070000000     0.161490000000     0.0791892  
H49      H      0.335850000000     0.047780000000     0.132150000000     0.0670165  
H50      H      0.332890000000     0.079980000000     0.108950000000     0.0802603  
H51      H      0.423780000000     0.264950000000     0.111330000000     0.0194528  
H52      H      0.418240000000     0.418050000000     0.040600000000     0.0200113  
H53      H      0.360110000000     0.310900000000     0.055450000000     0.0477751  
H54      H      0.391030000000     0.365420000000     0.071890000000     0.0506435  
H55      H      0.450540000000     0.318650000000     0.082510000000     0.046288   
H56      H      0.460290000000     0.346270000000     0.013120000000     0.0565274  
H57      H      0.334130000000     0.257740000000     0.086320000000     0.0217838  
H58      H      0.517500000000     0.417040000000     0.989680000000     0.0775692  
H59      H      0.496110000000     0.380060000000     0.960040000000     0.0647187  
H60      H      0.493860000000     0.413240000000     0.939480000000     0.0799025  
H61      H      0.729630000000     0.883870000000     0.453820000000     0.021803   
H62      H      0.688260000000     0.793560000000     0.680600000000     0.0149144  
H63      H      0.647840000000     0.787940000000     0.531490000000     0.0481462  
H64      H      0.693690000000     0.795510000000     0.598260000000     0.0520651  
H65      H      0.727920000000     0.882550000000     0.536470000000     0.0492538  
H66      H      0.677680000000     0.874430000000     0.593520000000     0.0578343  
H67      H      0.649350000000     0.790140000000     0.448660000000     0.0203836  
H68      H      0.672850000000     0.898280000000     0.656680000000     0.0635064  
H69      H      0.645790000000     0.874540000000     0.674100000000     0.0586962  
H70      H      0.656730000000     0.872740000000     0.715000000000     0.0858778  
H71      H      0.726190000000     0.858980000000     0.954390000000     0.0202859  
H72      H      0.726570000000     0.896100000000     0.180330000000     0.0202811  
H73      H      0.638790000000     0.866160000000     0.026490000000     0.0461863  
H74      H      0.728720000000     0.900310000000     0.098700000000     0.0501348  
H75      H      0.725520000000     0.863600000000     0.036460000000     0.0476809  
H76      H      0.630510000000     0.829700000000     0.090670000000     0.0572492  
H77      H      0.639990000000     0.861380000000     0.944470000000     0.0201402  
H78      H      0.614060000000     0.833760000000     0.208350000000     0.0797304  
H79      H      0.598630000000     0.815350000000     0.154910000000     0.0644314  
H80      H      0.616240000000     0.798850000000     0.191230000000     0.0783709  
H81      H      0.774120000000     0.841270000000     0.285730000000     0.0207605  
H82      H      0.764410000000     0.679620000000     0.217940000000     0.0203809  
H83      H      0.709200000000     0.729890000000     0.237000000000     0.0473134  
H84      H      0.739720000000     0.706620000000     0.251530000000     0.050634   
H85      H      0.800270000000     0.813800000000     0.256330000000     0.0463263  
H86      H      0.808660000000     0.793700000000     0.188500000000     0.0561472  
H87      H      0.684150000000     0.757420000000     0.268560000000     0.0210896  
H88      H      0.838380000000     0.758070000000     0.112490000000     0.0794447  
H89      H      0.842780000000     0.794280000000     0.133780000000     0.0643636  
H90      H      0.863740000000     0.777500000000     0.161460000000     0.0766594  
H91      H      0.681350000000     0.937000000000     0.359550000000     0.0215434  
H92      H      0.524480000000     0.924300000000     0.453620000000     0.0172543  
H93      H      0.564870000000     0.878090000000     0.363710000000     0.0462826  
H94      H      0.552410000000     0.898090000000     0.428280000000     0.0493847  
H95      H      0.653970000000     0.963640000000     0.386900000000     0.0475098  
H96      H      0.622030000000     0.984210000000     0.363980000000     0.0570481  
H97      H      0.593010000000     0.851820000000     0.338720000000     0.0195194  
H98      H      0.608110000000     0.036810000000     0.413020000000     0.0784371  
H99      H      0.615460000000     0.027400000000     0.357120000000     0.0658265  
H100     H      0.577840000000     0.023160000000     0.368820000000     0.0801608  
H101     H      0.044260000000     0.553870000000     0.847610000000     0.0200804  
H102     H      0.045430000000     0.525100000000     0.617430000000     0.0210822  
H103     H      0.950220000000     0.483100000000     0.756470000000     0.0470866  
H104     H      0.045300000000     0.527430000000     0.699050000000     0.050859   
H105     H      0.045920000000     0.560810000000     0.765570000000     0.0468091  
H106     H      0.955240000000     0.522440000000     0.696300000000     0.0560698  
H107     H      0.949260000000     0.476600000000     0.838350000000     0.0208983  
H108     H      0.932520000000     0.497950000000     0.590530000000     0.073799   
H109     H      0.932340000000     0.525720000000     0.630110000000     0.0630406  
H110     H      0.956130000000     0.540680000000     0.580550000000     0.0802445  
H111     H      0.042420000000     0.487070000000     0.348220000000     0.0207726  
H112     H      0.045670000000     0.519350000000     0.118010000000     0.0207635  
H113     H      0.949970000000     0.467120000000     0.255800000000     0.0477704  
H114     H      0.044990000000     0.516690000000     0.199710000000     0.0509782  
H115     H      0.044520000000     0.482320000000     0.266150000000     0.0467987  
H116     H      0.954790000000     0.431580000000     0.195890000000     0.0563248  
H117     H      0.948630000000     0.472300000000     0.337790000000     0.0209729  
H118     H      0.957190000000     0.414640000000     0.079710000000     0.0795645  
H119     H      0.933350000000     0.404680000000     0.129340000000     0.0628001  
H120     H      0.932590000000     0.432520000000     0.090370000000     0.0770559  
H121     H      0.932650000000     0.665850000000     0.117490000000     0.0203782  
H122     H      0.918840000000     0.502680000000     0.043290000000     0.0176984  
H123     H      0.866210000000     0.554510000000     0.069800000000     0.0464611  
H124     H      0.894510000000     0.529730000000     0.077790000000     0.0495065  
H125     H      0.958040000000     0.637850000000     0.088090000000     0.0471503  
H126     H      0.968340000000     0.618350000000     0.024380000000     0.0571914  
H127     H      0.842110000000     0.582490000000     0.102830000000     0.0208838  
H128     H      0.000140000000     0.583840000000     0.949610000000     0.080126   
H129     H      0.004410000000     0.619700000000     0.972260000000     0.0666571  
H130     H      0.022810000000     0.600800000000     0.001510000000     0.0793093  
H131     H      0.375660000000     0.149970000000     0.007280000000     0.0199392  
H132     H      0.290300000000     0.114080000000     0.768830000000     0.0204189  
H133     H      0.287710000000     0.141400000000     0.914200000000     0.0476742  
H134     H      0.287170000000     0.108600000000     0.850370000000     0.0499936  
H135     H      0.377820000000     0.145780000000     0.925340000000     0.0460967  
H136     H      0.385000000000     0.179920000000     0.861350000000     0.0570718  
H137     H      0.286000000000     0.145100000000     0.996290000000     0.0214251  
H138     H      0.400630000000     0.212000000000     0.762250000000     0.078221   
H139     H      0.417710000000     0.194640000000     0.797970000000     0.0645445  
H140     H      0.402910000000     0.177390000000     0.743740000000     0.0800966  
H141     H      0.373170000000     0.227800000000     0.507320000000     0.021053   
H142     H      0.288820000000     0.175390000000     0.268590000000     0.0198789  
H143     H      0.286720000000     0.145960000000     0.414540000000     0.047944   
H144     H      0.285290000000     0.177940000000     0.350110000000     0.0500501  
H145     H      0.375170000000     0.233790000000     0.425280000000     0.0466226  
H146     H      0.383480000000     0.206370000000     0.362200000000     0.0573959  
H147     H      0.285180000000     0.140810000000     0.496680000000     0.0216568  
H148     H      0.401630000000     0.226420000000     0.244530000000     0.0796692  
H149     H      0.416380000000     0.224460000000     0.299020000000     0.0648505  
H150     H      0.399830000000     0.189850000000     0.263580000000     0.0783433  
H151     H      0.422500000000     0.166170000000     0.588210000000     0.0200361  
H152     H      0.417810000000     0.013050000000     0.488900000000     0.0191496  
H153     H      0.365890000000     0.049500000000     0.577020000000     0.0478449  
H154     H      0.388240000000     0.037330000000     0.516130000000     0.0510155  
H155     H      0.450050000000     0.140700000000     0.558640000000     0.0462224  
H156     H      0.472380000000     0.111270000000     0.579220000000     0.0561611  
H157     H      0.338290000000     0.076220000000     0.603590000000     0.0215838  
H158     H      0.527480000000     0.104260000000     0.527620000000     0.0771488  
H159     H      0.517390000000     0.107750000000     0.585130000000     0.0644381  
H160     H      0.516860000000     0.072340000000     0.568580000000     0.0789502  
H161     H      0.086430000000     0.486040000000     0.951350000000     0.0206283  
H162     H      0.078530000000     0.328750000000     0.869060000000     0.0205669  
H163     H      0.020750000000     0.378230000000     0.889410000000     0.0474466  
H164     H      0.051350000000     0.353470000000     0.902600000000     0.0507052  
H165     H      0.112100000000     0.459100000000     0.919200000000     0.0466453  
H166     H      0.120670000000     0.443240000000     0.846880000000     0.0567502  
H167     H      0.995770000000     0.405480000000     0.923450000000     0.0209089  
H168     H      0.154140000000     0.411020000000     0.770380000000     0.0796839  
H169     H      0.155720000000     0.445980000000     0.791600000000     0.064829   
H170     H      0.177690000000     0.430840000000     0.820680000000     0.0776073  
H171     H      0.243610000000     0.171890000000     0.668070000000     0.0208491  
H172     H      0.248010000000     0.328990000000     0.744010000000     0.0205687  
H173     H      0.306840000000     0.281520000000     0.724770000000     0.0480125  
H174     H      0.275180000000     0.304310000000     0.710660000000     0.051281   
H175     H      0.216620000000     0.197780000000     0.699740000000     0.0469231  
H176     H      0.207750000000     0.215190000000     0.770350000000     0.0567817  
H177     H      0.332930000000     0.255450000000     0.691150000000     0.0216022  
H178     H      0.150400000000     0.227320000000     0.796890000000     0.078152   
H179     H      0.172950000000     0.212760000000     0.825760000000     0.0652818  
H180     H      0.174580000000     0.247900000000     0.846360000000     0.0802058  
H181     H      0.442860000000     0.487360000000     0.847050000000     0.0208104  
H182     H      0.491710000000     0.451650000000     0.608820000000     0.0202999  
H183     H      0.522660000000     0.480110000000     0.753140000000     0.0477335  
H184     H      0.489110000000     0.446160000000     0.690230000000     0.050073   
H185     H      0.436670000000     0.483950000000     0.764990000000     0.0465911  
H186     H      0.464710000000     0.519270000000     0.701010000000     0.057184   
H187     H      0.528050000000     0.483230000000     0.835190000000     0.0200076  
H188     H      0.444870000000     0.517630000000     0.583430000000     0.0799324  
H189     H      0.448170000000     0.535430000000     0.637490000000     0.0645969  
H190     H      0.482340000000     0.551480000000     0.601490000000     0.0781667  
H191     H      0.524020000000     0.476510000000     0.337390000000     0.0213626  
H192     H      0.553550000000     0.508620000000     0.108460000000     0.0192909  
H193     H      0.527720000000     0.569510000000     0.264090000000     0.0459556  
H194     H      0.560080000000     0.511600000000     0.189880000000     0.0498851  
H195     H      0.527460000000     0.480930000000     0.255160000000     0.0478253  
H196     H      0.491750000000     0.542080000000     0.202070000000     0.0570519  
H197     H      0.523730000000     0.564160000000     0.346100000000     0.0194247  
H198     H      0.458610000000     0.525740000000     0.103380000000     0.0780197  
H199     H      0.476880000000     0.560170000000     0.139100000000     0.0641261  
H200     H      0.493620000000     0.562090000000     0.084680000000     0.0791078  
H201     H      0.860080000000     0.226010000000     0.987980000000     0.0194565  
H202     H      0.890570000000     0.169800000000     0.751670000000     0.0204891  
H203     H      0.866310000000     0.143390000000     0.898960000000     0.0478173  
H204     H      0.898200000000     0.174840000000     0.832820000000     0.050277   
H205     H      0.862430000000     0.229890000000     0.905600000000     0.0463144  
H206     H      0.825090000000     0.198820000000     0.844920000000     0.0574705  
H207     H      0.864220000000     0.140300000000     0.981250000000     0.0213174  
H208     H      0.790520000000     0.177910000000     0.746730000000     0.0788132  
H209     H      0.806480000000     0.212700000000     0.781660000000     0.0647747  
H210     H      0.823470000000     0.215570000000     0.727130000000     0.0798936  
H211     H      0.779190000000     0.144070000000     0.489520000000     0.0207455  
H212     H      0.830990000000     0.114270000000     0.250750000000     0.0205656  
H213     H      0.861710000000     0.141450000000     0.396140000000     0.0485044  
H214     H      0.827810000000     0.107480000000     0.331870000000     0.0508126  
H215     H      0.774460000000     0.142880000000     0.407290000000     0.0465548  
H216     H      0.804780000000     0.181390000000     0.345500000000     0.0573222  
H217     H      0.865820000000     0.142600000000     0.478410000000     0.0217309  
H218     H      0.786090000000     0.182440000000     0.228220000000     0.0797727  
H219     H      0.790090000000     0.199940000000     0.282730000000     0.0646386  
H220     H      0.824110000000     0.215360000000     0.246510000000     0.078397   
H221     H      0.184030000000     0.376680000000     0.666470000000     0.019694   
H222     H      0.147150000000     0.282730000000     0.445550000000     0.0211684  
H223     H      0.104150000000     0.277400000000     0.593440000000     0.0476039  
H224     H      0.142680000000     0.281430000000     0.527330000000     0.051614   
H225     H      0.178940000000     0.374690000000     0.584340000000     0.0478152  
H226     H      0.135940000000     0.365870000000     0.524420000000     0.056879   
H227     H      0.109340000000     0.280200000000     0.676040000000     0.0208592  
H228     H      0.118610000000     0.362290000000     0.406370000000     0.0801841  
H229     H      0.126450000000     0.384420000000     0.457510000000     0.0640448  
H230     H      0.159070000000     0.391970000000     0.421630000000     0.0771499  
H231     H      0.140360000000     0.284300000000     0.951240000000     0.0204345  
H232     H      0.180670000000     0.290620000000     0.176000000000     0.0196476  
H233     H      0.231870000000     0.378230000000     0.018160000000     0.0461665  
H234     H      0.181930000000     0.287560000000     0.094360000000     0.0499183  
H235     H      0.147440000000     0.287110000000     0.033000000000     0.047739   
H236     H      0.206000000000     0.385100000000     0.084190000000     0.0569634  
H237     H      0.223910000000     0.374930000000     0.936410000000     0.0207365  
H238     H      0.227450000000     0.403130000000     0.201930000000     0.0791956  
H239     H      0.224760000000     0.417990000000     0.147840000000     0.0643566  
H240     H      0.190430000000     0.400300000000     0.183620000000     0.0779908  
H241     H      0.074760000000     0.328200000000     0.270370000000     0.0197725  
H242     H      0.925730000000     0.169260000000     0.185640000000     0.0190534  
H243     H      0.029710000000     0.217770000000     0.217760000000     0.0465289  
H244     H      0.976270000000     0.194110000000     0.222600000000     0.049908   
H245     H      0.022630000000     0.302050000000     0.236940000000     0.0468076  
H246     H      0.995670000000     0.284650000000     0.170080000000     0.0570694  
H247     H      0.080610000000     0.243950000000     0.254430000000     0.0208843  
H248     H      0.926030000000     0.271070000000     0.143170000000     0.0778865  
H249     H      0.963510000000     0.287870000000     0.114840000000     0.0662667  
H250     H      0.931010000000     0.252980000000     0.091880000000     0.0797873  
H251     H      0.407870000000     0.412760000000     0.446370000000     0.0214218  
H252     H      0.253400000000     0.416260000000     0.373560000000     0.0175881  
H253     H      0.358360000000     0.474430000000     0.396020000000     0.0456991  
H254     H      0.305280000000     0.443750000000     0.406420000000     0.0489829  
H255     H      0.354330000000     0.384700000000     0.418250000000     0.0474296  
H256     H      0.324040000000     0.372150000000     0.354480000000     0.0570775  
H257     H      0.410960000000     0.501410000000     0.427560000000     0.0198049  
H258     H      0.257560000000     0.336380000000     0.281000000000     0.0794906  
H259     H      0.290010000000     0.334070000000     0.304140000000     0.0667058  
H260     H      0.252880000000     0.314390000000     0.333420000000     0.0795359  
H261     H      0.526590000000     0.052190000000     0.827580000000     0.0212415  
H262     H      0.561390000000     0.052390000000     0.601370000000     0.0167081  
H263     H      0.529370000000     0.961950000000     0.756120000000     0.0456678  
H264     H      0.565700000000     0.054390000000     0.683170000000     0.0488757  
H265     H      0.532110000000     0.051700000000     0.745790000000     0.0468111  
H266     H      0.498050000000     0.954820000000     0.690280000000     0.0569754  
H267     H      0.523060000000     0.962760000000     0.837820000000     0.0193592  
H268     H      0.503740000000     0.940070000000     0.571570000000     0.0789849  
H269     H      0.487450000000     0.923330000000     0.625500000000     0.0641697  
H270     H      0.467730000000     0.938800000000     0.591420000000     0.0776856  
H271     H      0.448790000000     0.968580000000     0.339620000000     0.0209876  
H272     H      0.498630000000     0.050700000000     0.099210000000     0.0198877  
H273     H      0.528550000000     0.056420000000     0.246410000000     0.0467137  
H274     H      0.496730000000     0.055420000000     0.180530000000     0.0496173  
H275     H      0.443370000000     0.965590000000     0.257620000000     0.0464491  
H276     H      0.471730000000     0.957940000000     0.195870000000     0.0569275  
H277     H      0.533120000000     0.058950000000     0.328780000000     0.019196   
H278     H      0.488410000000     0.941250000000     0.096650000000     0.077901   
H279     H      0.455120000000     0.923850000000     0.134280000000     0.0641752  
H280     H      0.450450000000     0.936860000000     0.079790000000     0.0792609  
H281     H      0.746010000000     0.077550000000     0.090270000000     0.0214106  
H282     H      0.592770000000     0.086590000000     0.028760000000     0.0186269  
H283     H      0.698260000000     0.141750000000     0.044350000000     0.0460293  
H284     H      0.645600000000     0.112690000000     0.058290000000     0.0492589  
H285     H      0.691780000000     0.050720000000     0.064680000000     0.0471975  
H286     H      0.659580000000     0.038730000000     0.003020000000     0.057048   
H287     H      0.751440000000     0.167430000000     0.073400000000     0.0198244  
H288     H      0.590520000000     0.004410000000     0.934110000000     0.0797246  
H289     H      0.623210000000     0.001200000000     0.953980000000     0.0661047  
H290     H      0.587230000000     0.982590000000     0.986180000000     0.0773421  
H291     H      0.191950000000     0.810790000000     0.666150000000     0.0203958  
H292     H      0.220450000000     0.842650000000     0.437780000000     0.0200209  
H293     H      0.193340000000     0.902850000000     0.593480000000     0.0459796  
H294     H      0.227250000000     0.846380000000     0.519080000000     0.0499579  
H295     H      0.194570000000     0.815060000000     0.583990000000     0.0475734  
H296     H      0.157260000000     0.874670000000     0.530860000000     0.0565134  
H297     H      0.190330000000     0.897710000000     0.675730000000     0.019191   
H298     H      0.123610000000     0.856470000000     0.432300000000     0.0781231  
H299     H      0.141080000000     0.891180000000     0.467500000000     0.0644704  
H300     H      0.157880000000     0.893260000000     0.413070000000     0.0801276  
H301     H      0.193510000000     0.812210000000     0.165520000000     0.0201863  
H302     H      0.159920000000     0.783890000000     0.937330000000     0.0197476  
H303     H      0.102930000000     0.813670000000     0.093840000000     0.0461345  
H304     H      0.156610000000     0.777270000000     0.018640000000     0.0495555  
H305     H      0.189000000000     0.809890000000     0.083320000000     0.0474027  
H306     H      0.131690000000     0.849900000000     0.031140000000     0.0570105  
H307     H      0.108220000000     0.816250000000     0.176060000000     0.0204155  
H308     H      0.112900000000     0.849890000000     0.913520000000     0.0795284  
H309     H      0.115840000000     0.867040000000     0.968010000000     0.0642699  
H310     H      0.150240000000     0.883530000000     0.932450000000     0.0779871  
H311     H      0.407740000000     0.914040000000     0.946470000000     0.0194076  
H312     H      0.255790000000     0.920170000000     0.872530000000     0.0202217  
H313     H      0.361950000000     0.977290000000     0.888030000000     0.0473335  
H314     H      0.307990000000     0.947110000000     0.904190000000     0.0504714  
H315     H      0.354070000000     0.886820000000     0.918470000000     0.0458642  
H316     H      0.325360000000     0.875120000000     0.850610000000     0.0561737  
H317     H      0.415070000000     0.003730000000     0.918320000000     0.0222666  
H318     H      0.259700000000     0.840980000000     0.776440000000     0.0799828  
H319     H      0.290920000000     0.837130000000     0.800890000000     0.0645845  
H320     H      0.253230000000     0.818070000000     0.828530000000     0.0779167  
H321     H      0.865100000000     0.720380000000     0.006550000000     0.019714   
H322     H      0.812070000000     0.622790000000     0.788320000000     0.0210693  
H323     H      0.776230000000     0.624760000000     0.938220000000     0.0471074  
H324     H      0.811180000000     0.623650000000     0.870250000000     0.0514094  
H325     H      0.857520000000     0.718140000000     0.924650000000     0.0478149  
H326     H      0.813610000000     0.712830000000     0.867230000000     0.0566866  
H327     H      0.783940000000     0.627850000000     0.020230000000     0.0209318  
H328     H      0.791900000000     0.708780000000     0.751300000000     0.0804044  
H329     H      0.804810000000     0.732570000000     0.801130000000     0.0638016  
H330     H      0.834030000000     0.735320000000     0.761820000000     0.0776071  
H331     H      0.862130000000     0.721210000000     0.509300000000     0.0214027  
H332     H      0.821050000000     0.625790000000     0.288120000000     0.0211682  
H333     H      0.856990000000     0.627410000000     0.436480000000     0.047246   
H334     H      0.823010000000     0.626040000000     0.369760000000     0.0512453  
H335     H      0.868640000000     0.721040000000     0.427460000000     0.0480181  
H336     H      0.905300000000     0.718560000000     0.367810000000     0.0566388  
H337     H      0.850810000000     0.628300000000     0.518390000000     0.020998   
H338     H      0.902700000000     0.740370000000     0.261190000000     0.0779169  
H339     H      0.930970000000     0.742770000000     0.301920000000     0.06364    
H340     H      0.924140000000     0.718900000000     0.252800000000     0.0799961  
H341     H      0.739990000000     0.667510000000     0.615590000000     0.0203837  
H342     H      0.587090000000     0.507520000000     0.542530000000     0.0188778  
H343     H      0.691550000000     0.555760000000     0.567820000000     0.0464842  
H344     H      0.638620000000     0.532840000000     0.576330000000     0.0496219  
H345     H      0.686720000000     0.641340000000     0.586240000000     0.0469153  
H346     H      0.656500000000     0.622630000000     0.522760000000     0.0568908  
H347     H      0.743680000000     0.582020000000     0.600670000000     0.0208225  
H348     H      0.585250000000     0.607950000000     0.500470000000     0.0784264  
H349     H      0.622420000000     0.625640000000     0.471240000000     0.0662833  
H350     H      0.590180000000     0.590420000000     0.448520000000     0.0798202  
H351     H      0.925110000000     0.759660000000     0.695990000000     0.019784   
H352     H      0.071860000000     0.750290000000     0.791710000000     0.0189609  
H353     H      0.982830000000     0.700920000000     0.707520000000     0.0474718  
H354     H      0.017680000000     0.722520000000     0.766860000000     0.0501475  
H355     H      0.978320000000     0.786740000000     0.724900000000     0.0457978  
H356     H      0.030000000000     0.808550000000     0.706630000000     0.0557258  
H357     H      0.928550000000     0.673980000000     0.681980000000     0.0212426  
H358     H      0.112900000000     0.850790000000     0.712930000000     0.0795983  
H359     H      0.078480000000     0.853400000000     0.701810000000     0.0643306  
H360     H      0.094720000000     0.861970000000     0.758060000000     0.0768137  
N1       N      0.723830000000     0.921890000000     0.761940000000    -0.21798    
N2       N      0.795930000000     0.070730000000     0.652920000000    -0.206836   
N3       N      0.953890000000     0.412360000000     0.517440000000    -0.220901   
N4       N      0.879020000000     0.250630000000     0.588260000000    -0.207267   
N5       N      0.122130000000     0.745010000000     0.343670000000    -0.220476   
N6       N      0.041760000000     0.589790000000     0.439360000000    -0.20707    
N7       N      0.548170000000     0.593730000000     0.944490000000    -0.221667   
N8       N      0.628870000000     0.749730000000     0.851650000000    -0.207696   
N9       N      0.291300000000     0.078960000000     0.174210000000    -0.221469   
N10      N      0.212280000000     0.923120000000     0.268440000000    -0.207561   
N11      N      0.455890000000     0.413730000000     0.009920000000    -0.220943   
N12      N      0.376980000000     0.257210000000     0.100580000000    -0.207441   
N13      N      0.678000000000     0.831470000000     0.684470000000    -0.224657   
N14      N      0.689300000000     0.837280000000     0.445140000000    -0.207668   
N15      N      0.677480000000     0.859950000000     0.183850000000    -0.22126    
N16      N      0.682830000000     0.859190000000     0.943410000000    -0.208354   
N17      N      0.801710000000     0.720680000000     0.184750000000    -0.220812   
N18      N      0.727210000000     0.801520000000     0.279060000000    -0.20737    
N19      N      0.557120000000     0.969750000000     0.425000000000    -0.221216   
N20      N      0.639270000000     0.892390000000     0.347470000000    -0.207943   
N21      N      0.999940000000     0.521370000000     0.608020000000    -0.219629   
N22      N      0.996840000000     0.514390000000     0.849030000000    -0.207054   
N23      N      0.000200000000     0.477520000000     0.108120000000    -0.219707   
N24      N      0.995580000000     0.480570000000     0.349060000000    -0.206831   
N25      N      0.958560000000     0.544490000000     0.015780000000    -0.221806   
N26      N      0.885530000000     0.626350000000     0.112060000000    -0.207436   
N27      N      0.339260000000     0.150610000000     0.766840000000    -0.220316   
N28      N      0.330980000000     0.148490000000     0.007870000000    -0.206993   
N29      N      0.338000000000     0.188790000000     0.267230000000    -0.220531   
N30      N      0.329390000000     0.183520000000     0.508080000000    -0.206886   
N31      N      0.462370000000     0.048730000000     0.515800000000    -0.22161    
N32      N      0.378360000000     0.123110000000     0.598200000000    -0.207742   
N33      N      0.116270000000     0.371490000000     0.839870000000    -0.220683   
N34      N      0.039190000000     0.447970000000     0.939270000000    -0.207315   
N35      N      0.211190000000     0.286590000000     0.775280000000    -0.221115   
N36      N      0.290260000000     0.211600000000     0.677570000000    -0.207504   
N37      N      0.480450000000     0.489170000000     0.606620000000    -0.220883   
N38      N      0.486210000000     0.486130000000     0.847180000000    -0.207842   
N39      N      0.518520000000     0.523130000000     0.107180000000    -0.221334   
N40      N      0.522800000000     0.519560000000     0.347780000000    -0.207801   
N41      N      0.853030000000     0.180850000000     0.750280000000    -0.220854   
N42      N      0.861200000000     0.182470000000     0.990680000000    -0.207982   
N43      N      0.820490000000     0.152360000000     0.249890000000    -0.221129   
N44      N      0.823170000000     0.144050000000     0.490050000000    -0.207755   
N45      N      0.145030000000     0.325560000000     0.436440000000    -0.21984    
N46      N      0.147350000000     0.328480000000     0.677340000000    -0.207372   
N47      N      0.191750000000     0.339340000000     0.178410000000    -0.220707   
N48      N      0.181300000000     0.329600000000     0.937750000000    -0.20722    
N49      N      0.930160000000     0.212270000000     0.158400000000    -0.221242   
N50      N      0.081670000000     0.288150000000     0.264590000000    -0.207297   
N51      N      0.257520000000     0.377430000000     0.346770000000    -0.22134    
N52      N      0.413500000000     0.459160000000     0.438790000000    -0.207183   
N53      N      0.526870000000     0.002700000000     0.597670000000    -0.220702   
N54      N      0.523810000000     0.007250000000     0.838770000000    -0.206828   
N55      N      0.486690000000     0.001690000000     0.099280000000    -0.219683   
N56      N      0.491770000000     0.013640000000     0.340320000000    -0.206897   
N57      N      0.594480000000     0.046730000000     0.000720000000    -0.221179   
N58      N      0.752790000000     0.124440000000     0.083630000000    -0.207534   
N59      N      0.184460000000     0.855870000000     0.436160000000    -0.220391   
N60      N      0.190270000000     0.853560000000     0.677040000000    -0.207552   
N61      N      0.148410000000     0.821230000000     0.936020000000    -0.220367   
N62      N      0.151590000000     0.815090000000     0.176900000000    -0.207262   
N63      N      0.259150000000     0.881210000000     0.844090000000    -0.220207   
N64      N      0.415550000000     0.960910000000     0.934100000000    -0.206764   
N65      N      0.814190000000     0.667730000000     0.778940000000    -0.219732   
N66      N      0.825340000000     0.674150000000     0.019430000000    -0.207039   
N67      N      0.861460000000     0.672460000000     0.279070000000    -0.219659   
N68      N      0.855480000000     0.674590000000     0.519880000000    -0.206843   
N69      N      0.590710000000     0.550090000000     0.514910000000    -0.221027   
N70      N      0.745880000000     0.626810000000     0.610100000000    -0.207031   
N71      N      0.082230000000     0.795740000000     0.765820000000    -0.220996   
N72      N      0.922830000000     0.714810000000     0.686870000000    -0.207152   
O1       O      0.844850000000     0.649890000000     0.589710000000    -0.556599   
O2       O      0.822020000000     0.645350000000     0.714340000000    -0.555875   
O3       O      0.790270000000     0.626160000000     0.634650000000    -0.556858   
O4       O      0.876840000000     0.668990000000     0.668760000000    -0.555824   
O5       O      0.878210000000     0.715350000000     0.663310000000    -0.558691   
O6       O      0.791690000000     0.672540000000     0.629090000000    -0.557576   
O7       O      0.823680000000     0.691610000000     0.708100000000    -0.564826   
O8       O      0.846610000000     0.696420000000     0.583760000000    -0.55742    
O9       O      0.159050000000     0.806860000000     0.866310000000    -0.559102   
O10      O      0.181290000000     0.823370000000     0.741500000000    -0.559127   
O11      O      0.213640000000     0.836290000000     0.820230000000    -0.560285   
O12      O      0.126700000000     0.794100000000     0.787550000000    -0.555298   
O13      O      0.127360000000     0.840120000000     0.790870000000    -0.565185   
O14      O      0.213260000000     0.881580000000     0.827300000000    -0.558869   
O15      O      0.182360000000     0.869570000000     0.747160000000    -0.559308   
O16      O      0.157950000000     0.851850000000     0.871270000000    -0.561812   
O17      O      0.513210000000     0.982300000000     0.908450000000    -0.558962   
O18      O      0.494080000000     0.979120000000     0.034410000000    -0.561458   
O19      O      0.459900000000     0.959720000000     0.957250000000    -0.5594     
O20      O      0.547310000000     0.001410000000     0.985270000000    -0.562484   
O21      O      0.549430000000     0.048140000000     0.981890000000    -0.557257   
O22      O      0.462400000000     0.006520000000     0.950090000000    -0.554942   
O23      O      0.495520000000     0.025350000000     0.028610000000    -0.558464   
O24      O      0.516480000000     0.029550000000     0.903380000000    -0.557638   
O25      O      0.156080000000     0.305730000000     0.371730000000    -0.555405   
O26      O      0.181240000000     0.313690000000     0.247700000000    -0.55963    
O27      O      0.211790000000     0.331420000000     0.327760000000    -0.561766   
O28      O      0.125900000000     0.287910000000     0.290800000000    -0.557665   
O29      O      0.126380000000     0.333890000000     0.286890000000    -0.557511   
O30      O      0.212320000000     0.377360000000     0.324340000000    -0.559711   
O31      O      0.182060000000     0.359690000000     0.243630000000    -0.562821   
O32      O      0.156740000000     0.351580000000     0.367170000000    -0.565124   
O33      O      0.830420000000     0.137420000000     0.180370000000    -0.56373    
O34      O      0.853190000000     0.153370000000     0.055970000000    -0.560745   
O35      O      0.885080000000     0.166980000000     0.135520000000    -0.558135   
O36      O      0.798380000000     0.123900000000     0.101690000000    -0.556643   
O37      O      0.798090000000     0.169500000000     0.105660000000    -0.560992   
O38      O      0.884650000000     0.212470000000     0.138690000000    -0.563463   
O39      O      0.852450000000     0.198730000000     0.059960000000    -0.560582   
O40      O      0.830040000000     0.182810000000     0.184900000000    -0.561973   
O41      O      0.514240000000     0.490040000000     0.412960000000    -0.558099   
O42      O      0.491170000000     0.474180000000     0.537550000000    -0.560896   
O43      O      0.459400000000     0.459810000000     0.458460000000    -0.557154   
O44      O      0.545920000000     0.504330000000     0.492780000000    -0.558085   
O45      O      0.544560000000     0.549340000000     0.495800000000    -0.561441   
O46      O      0.458090000000     0.504910000000     0.461360000000    -0.558601   
O47      O      0.489590000000     0.518980000000     0.541150000000    -0.56287    
O48      O      0.512920000000     0.535110000000     0.416730000000    -0.561748   
O49      O      0.176510000000     0.353010000000     0.741190000000    -0.561737   
O50      O      0.194800000000     0.352230000000     0.866530000000    -0.558865   
O51      O      0.208750000000     0.331910000000     0.789250000000    -0.559206   
O52      O      0.162400000000     0.373060000000     0.818020000000    -0.564152   
O53      O      0.118670000000     0.326170000000     0.825340000000    -0.557602   
O54      O      0.165270000000     0.285010000000     0.798170000000    -0.563131   
O55      O      0.150840000000     0.305440000000     0.874520000000    -0.558504   
O56      O      0.133240000000     0.305580000000     0.748470000000    -0.555416   
O57      O      0.360420000000     0.180700000000     0.701830000000    -0.563774   
O58      O      0.353710000000     0.198720000000     0.577950000000    -0.558857   
O59      O      0.335740000000     0.211430000000     0.658250000000    -0.560896   
O60      O      0.378440000000     0.168170000000     0.621500000000    -0.563076   
O61      O      0.332590000000     0.122720000000     0.618140000000    -0.555497   
O62      O      0.289560000000     0.166610000000     0.651710000000    -0.556605   
O63      O      0.308130000000     0.153150000000     0.572440000000    -0.555888   
O64      O      0.314010000000     0.136250000000     0.697250000000    -0.557532   
O65      O      0.021330000000     0.526980000000     0.919050000000    -0.558579   
O66      O      0.023420000000     0.508040000000     0.044110000000    -0.557048   
O67      O      0.041990000000     0.493740000000     0.965710000000    -0.559244   
O68      O      0.002840000000     0.541550000000     0.997210000000    -0.562852   
O69      O      0.955620000000     0.497890000000     0.992900000000    -0.559568   
O70      O      0.994660000000     0.450640000000     0.956950000000    -0.557399   
O71      O      0.976780000000     0.464280000000     0.036840000000    -0.563643   
O72      O      0.973360000000     0.484390000000     0.912920000000    -0.557838   
O73      O      0.703270000000     0.876280000000     0.252630000000    -0.562124   
O74      O      0.710380000000     0.864080000000     0.378380000000    -0.561551   
O75      O      0.728310000000     0.847580000000     0.300930000000    -0.555321   
O76      O      0.685190000000     0.892250000000     0.330170000000    -0.556532   
O77      O      0.639300000000     0.846790000000     0.327830000000    -0.564187   
O78      O      0.682120000000     0.802500000000     0.297900000000    -0.562498   
O79      O      0.664650000000     0.818430000000     0.376090000000    -0.557927   
O80      O      0.657150000000     0.831340000000     0.250220000000    -0.564143   
O81      O      0.875530000000     0.695250000000     0.207290000000    -0.562114   
O82      O      0.856990000000     0.697060000000     0.082100000000    -0.557738   
O83      O      0.845630000000     0.719090000000     0.159490000000    -0.563368   
O84      O      0.887180000000     0.673180000000     0.129870000000    -0.557119   
O85      O      0.841530000000     0.627770000000     0.136290000000    -0.559059   
O86      O      0.800680000000     0.673690000000     0.169660000000    -0.558962   
O87      O      0.811310000000     0.651960000000     0.090820000000    -0.558549   
O88      O      0.831000000000     0.649330000000     0.215180000000    -0.559248   
O89      O      0.540470000000     0.028940000000     0.528600000000    -0.55891    
O90      O      0.521060000000     0.036310000000     0.405230000000    -0.557033   
O91      O      0.507700000000     0.051950000000     0.487470000000    -0.566595   
O92      O      0.554100000000     0.013630000000     0.446720000000    -0.566487   
O93      O      0.511100000000     0.966000000000     0.452240000000    -0.558112   
O94      O      0.463880000000     0.004710000000     0.490460000000    -0.554997   
O95      O      0.477980000000     0.988510000000     0.409680000000    -0.559988   
O96      O      0.496780000000     0.981810000000     0.532900000000    -0.564887   
O97      O      0.308470000000     0.155670000000     0.072390000000    -0.556435   
O98      O      0.313500000000     0.178470000000     0.197120000000    -0.557964   
O99      O      0.331710000000     0.210470000000     0.117710000000    -0.558019   
O100     O      0.290210000000     0.123730000000     0.152010000000    -0.559585   
O101     O      0.336600000000     0.125550000000     0.155800000000    -0.561736   
O102     O      0.378300000000     0.212890000000     0.124540000000    -0.559651   
O103     O      0.359580000000     0.179940000000     0.202750000000    -0.562974   
O104     O      0.355390000000     0.158640000000     0.077740000000    -0.55992    
O105     O      0.488570000000     0.515510000000     0.042570000000    -0.564767   
O106     O      0.471110000000     0.494260000000     0.917700000000    -0.559583   
O107     O      0.457460000000     0.461130000000     0.996020000000    -0.55845    
O108     O      0.502160000000     0.548420000000     0.964190000000    -0.56059    
O109     O      0.546820000000     0.546740000000     0.960640000000    -0.563322   
O110     O      0.501550000000     0.458890000000     0.987960000000    -0.564168   
O111     O      0.516170000000     0.493460000000     0.911290000000    -0.560217   
O112     O      0.532170000000     0.512160000000     0.037160000000    -0.561711   
O113     O      0.136250000000     0.823460000000     0.247160000000    -0.558172   
O114     O      0.154170000000     0.847060000000     0.371450000000    -0.562978   
O115     O      0.167000000000     0.878410000000     0.291620000000    -0.560218   
O116     O      0.123230000000     0.791840000000     0.326910000000    -0.559087   
O117     O      0.167520000000     0.789880000000     0.319710000000    -0.561995   
O118     O      0.211990000000     0.877240000000     0.288230000000    -0.556621   
O119     O      0.198090000000     0.844270000000     0.366520000000    -0.55844    
O120     O      0.181430000000     0.822870000000     0.241340000000    -0.558635   
O121     O      0.976790000000     0.512170000000     0.536560000000    -0.564719   
O122     O      0.972600000000     0.488080000000     0.412690000000    -0.556496   
O123     O      0.953390000000     0.457090000000     0.492860000000    -0.563366   
O124     O      0.996050000000     0.543460000000     0.456590000000    -0.557821   
O125     O      0.042330000000     0.545540000000     0.465670000000    -0.556969   
O126     O      0.999410000000     0.458240000000     0.497830000000    -0.556486   
O127     O      0.019500000000     0.491160000000     0.419400000000    -0.557178   
O128     O      0.022310000000     0.512840000000     0.544180000000    -0.557867   
O129     O      0.806560000000     0.150090000000     0.560530000000    -0.560842   
O130     O      0.822220000000     0.170400000000     0.685830000000    -0.564311   
O131     O      0.834600000000     0.203860000000     0.608150000000    -0.559009   
O132     O      0.793980000000     0.116170000000     0.637740000000    -0.555949   
O133     O      0.840060000000     0.117390000000     0.631890000000    -0.557943   
O134     O      0.880800000000     0.205190000000     0.603620000000    -0.557195   
O135     O      0.867930000000     0.171080000000     0.680430000000    -0.560023   
O136     O      0.852760000000     0.151550000000     0.554640000000    -0.558245   
O137     O      0.658810000000     0.851550000000     0.873670000000    -0.564454   
O138     O      0.651320000000     0.828580000000     0.749630000000    -0.572517   
O139     O      0.631230000000     0.796250000000     0.829510000000    -0.559766   
O140     O      0.678310000000     0.882170000000     0.792380000000    -0.568934   
O141     O      0.723100000000     0.880800000000     0.800140000000    -0.565359   
O142     O      0.675660000000     0.793930000000     0.831980000000    -0.561316   
O143     O      0.696440000000     0.827600000000     0.753910000000    -0.562704   
O144     O      0.702640000000     0.848320000000     0.879170000000    -0.562464   
V1       V      0.833420000000     0.645750000000     0.652180000000     1.38749    
V2       V      0.835090000000     0.695790000000     0.645750000000     1.3929     
V3       V      0.170180000000     0.813340000000     0.803720000000     1.38602    
V4       V      0.170250000000     0.862580000000     0.809450000000     1.38996    
V5       V      0.503510000000     0.978780000000     0.971620000000     1.3856     
V6       V      0.506030000000     0.029240000000     0.965780000000     1.39095    
V7       V      0.168730000000     0.307870000000     0.309800000000     1.38815    
V8       V      0.169410000000     0.357450000000     0.305330000000     1.38841    
V9       V      0.841820000000     0.143630000000     0.118140000000     1.39933    
V10      V      0.841300000000     0.192680000000     0.122540000000     1.38888    
V11      V      0.502760000000     0.480320000000     0.475230000000     1.39508    
V12      V      0.501220000000     0.528850000000     0.478990000000     1.38839    
V13      V      0.187340000000     0.354400000000     0.803480000000     1.39642    
V14      V      0.140240000000     0.303700000000     0.811920000000     1.38754    
V15      V      0.358870000000     0.191530000000     0.640100000000     1.40001    
V16      V      0.309220000000     0.142880000000     0.634660000000     1.38674    
V17      V      0.024270000000     0.519300000000     0.981840000000     1.39035    
V18      V      0.973240000000     0.472570000000     0.974620000000     1.3898     
V19      V      0.708650000000     0.871830000000     0.315600000000     1.39524    
V20      V      0.659020000000     0.822950000000     0.312960000000     1.39911    
V21      V      0.868140000000     0.697930000000     0.144340000000     1.3841     
V22      V      0.819330000000     0.648900000000     0.153360000000     1.39732    
V23      V      0.532520000000     0.034600000000     0.466790000000     1.39243    
V24      V      0.485690000000     0.983380000000     0.471490000000     1.38822    
V25      V      0.309120000000     0.166980000000     0.134570000000     1.39274    
V26      V      0.359290000000     0.169330000000     0.140460000000     1.38922    
V27      V      0.478050000000     0.504880000000     0.980390000000     1.39284    
V28      V      0.525930000000     0.502720000000     0.974000000000     1.39242    
V29      V      0.143380000000     0.835220000000     0.309560000000     1.39213    
V30      V      0.191520000000     0.833480000000     0.303740000000     1.38809    
V31      V      0.972900000000     0.500150000000     0.474350000000     1.38874    
V32      V      0.022720000000     0.502000000000     0.482080000000     1.38927    
V33      V      0.812500000000     0.160040000000     0.623370000000     1.3922     
V34      V      0.862190000000     0.161300000000     0.617380000000     1.39604    
V35      V      0.653040000000     0.839570000000     0.811470000000     1.40698    
V36      V      0.701170000000     0.837430000000     0.816790000000     1.40321    


