data_structure

_audit_creation_method RASPA-1.0
_audit_creation_date 2023-5-23
_audit_author_name 'Poobodin Mano'

_cell_length_a    44.7172
_cell_length_b    44.7195
_cell_length_c    44.7205
_cell_angle_alpha 90
_cell_angle_beta  90
_cell_angle_gamma 90
_cell_volume      89429

_symmetry_cell_setting          triclinic
_symmetry_space_group_name_Hall 'P 1'
_symmetry_space_group_name_H-M  'P 1'
_symmetry_Int_Tables_number     1

_symmetry_equiv_pos_as_xyz 'x,y,z'

loop_
_atom_site_label
_atom_site_type_symbol
_atom_site_fract_x
_atom_site_fract_y
_atom_site_fract_z
_atom_site_charge
C1       C      0.725270000000     0.333170000000     0.002170000000     0.47667    
C2       C      0.611780000000     0.333660000000     0.999200000000     0.48168    
C3       C      0.668740000000     0.390130000000     0.000880000000     0.477064   
C4       C      0.668240000000     0.276610000000     0.000610000000     0.476635   
C5       C      0.277610000000     0.333460000000     0.997670000000     0.481252   
C6       C      0.391110000000     0.333000000000     0.996930000000     0.481293   
C7       C      0.334650000000     0.390010000000     0.997470000000     0.481089   
C8       C      0.334200000000     0.276500000000     0.997110000000     0.481172   
C9       C      0.666790000000     0.724340000000     0.002330000000     0.477015   
C10      C      0.668100000000     0.610850000000     0.002050000000     0.476997   
C11      C      0.610700000000     0.666910000000     0.003740000000     0.476799   
C12      C      0.724220000000     0.668320000000     0.000700000000     0.475025   
C13      C      0.276490000000     0.666360000000     0.999600000000     0.481143   
C14      C      0.389970000000     0.668440000000     0.003290000000     0.476344   
C15      C      0.334170000000     0.610700000000     0.000230000000     0.475177   
C16      C      0.332150000000     0.724210000000     0.002660000000     0.47644    
C17      C      0.721970000000     0.001900000000     0.668220000000     0.477584   
C18      C      0.608460000000     0.001340000000     0.668850000000     0.477747   
C19      C      0.665000000000     0.002420000000     0.611810000000     0.47769    
C20      C      0.665490000000     0.001050000000     0.725290000000     0.477826   
C21      C      0.274280000000     0.997220000000     0.667050000000     0.479875   
C22      C      0.387770000000     0.998400000000     0.668500000000     0.480301   
C23      C      0.331750000000     0.997850000000     0.611040000000     0.480061   
C24      C      0.330230000000     0.997610000000     0.724550000000     0.479868   
C25      C      0.334070000000     0.002000000000     0.276790000000     0.477446   
C26      C      0.332630000000     0.999570000000     0.390300000000     0.480504   
C27      C      0.390050000000     0.001740000000     0.334140000000     0.478066   
C28      C      0.276530000000     0.999750000000     0.332900000000     0.480082   
C29      C      0.724260000000     0.002950000000     0.334270000000     0.477941   
C30      C      0.610740000000     0.002970000000     0.334540000000     0.478129   
C31      C      0.667580000000     0.003600000000     0.391140000000     0.478095   
C32      C      0.667420000000     0.002190000000     0.277630000000     0.477665   
C33      C      0.998910000000     0.665650000000     0.720790000000     0.479471   
C34      C      0.998610000000     0.665850000000     0.607300000000     0.479817   
C35      C      0.999560000000     0.609060000000     0.664090000000     0.479735   
C36      C      0.998020000000     0.722550000000     0.664150000000     0.479744   
C37      C      0.001520000000     0.274940000000     0.668780000000     0.477934   
C38      C      0.001650000000     0.388430000000     0.668460000000     0.478098   
C39      C      0.002240000000     0.331650000000     0.611940000000     0.478235   
C40      C      0.001100000000     0.331860000000     0.725440000000     0.477989   
C41      C      0.001330000000     0.668020000000     0.273080000000     0.477912   
C42      C      0.999580000000     0.667360000000     0.386610000000     0.479606   
C43      C      0.001710000000     0.610890000000     0.329670000000     0.478346   
C44      C      0.999220000000     0.724400000000     0.330230000000     0.479808   
C45      C      0.003010000000     0.333410000000     0.277750000000     0.478276   
C46      C      0.003690000000     0.333300000000     0.391260000000     0.47835    
C47      C      0.003480000000     0.390180000000     0.334390000000     0.478056   
C48      C      0.003310000000     0.276640000000     0.334500000000     0.477921   
C49      C      0.944650000000     0.333260000000     0.002680000000     0.478569   
C50      C      0.058160000000     0.333270000000     0.000650000000     0.475839   
C51      C      0.002230000000     0.333370000000     0.058370000000     0.478719   
C52      C      0.000500000000     0.333110000000     0.944870000000     0.47764    
C53      C      0.943630000000     0.667890000000     0.997460000000     0.478998   
C54      C      0.057180000000     0.666020000000     0.996280000000     0.479575   
C55      C      0.001130000000     0.667700000000     0.053690000000     0.479001   
C56      C      0.999810000000     0.666220000000     0.940170000000     0.479894   
C57      C      0.057120000000     0.999200000000     0.332920000000     0.479817   
C58      C      0.943610000000     0.001760000000     0.333420000000     0.478525   
C59      C      0.998990000000     0.943760000000     0.332730000000     0.47937    
C60      C      0.001640000000     0.057260000000     0.333570000000     0.478652   
C61      C      0.941390000000     0.999940000000     0.666790000000     0.481331   
C62      C      0.054870000000     0.997620000000     0.666360000000     0.479713   
C63      C      0.999290000000     0.055500000000     0.667160000000     0.47992    
C64      C      0.997070000000     0.942000000000     0.665950000000     0.47921    
C65      C      0.667000000000     0.000670000000     0.058230000000     0.476736   
C66      C      0.666480000000     0.000160000000     0.944720000000     0.477163   
C67      C      0.666530000000     0.943700000000     0.001770000000     0.478198   
C68      C      0.666980000000     0.057200000000     0.001170000000     0.47609    
C69      C      0.331110000000     0.998740000000     0.943990000000     0.478605   
C70      C      0.333590000000     0.002100000000     0.057470000000     0.47851    
C71      C      0.331700000000     0.943610000000     0.002470000000     0.478219   
C72      C      0.333030000000     0.057110000000     0.999060000000     0.481015   
C73      C      0.006680000000     0.134820000000     0.307430000000    -0.0910204  
C74      C      0.002960000000     0.150490000000     0.334160000000     0.0339013  
C75      C      0.998940000000     0.134590000000     0.360710000000    -0.0904535  
C76      C      0.998880000000     0.103360000000     0.360170000000     0.0741498  
C77      C      0.006000000000     0.103600000000     0.307590000000     0.0735297  
C78      C      0.003090000000     0.183400000000     0.334320000000     0.0339397  
C79      C      0.029950000000     0.199120000000     0.331980000000    -0.0909486  
C80      C      0.029660000000     0.230360000000     0.332350000000     0.0736449  
C81      C      0.976760000000     0.230470000000     0.336550000000     0.0742014  
C82      C      0.976320000000     0.199250000000     0.336760000000    -0.0904437  
C83      C      0.976210000000     0.338620000000     0.200450000000    -0.0903504  
C84      C      0.002560000000     0.333430000000     0.184530000000     0.0340165  
C85      C      0.029050000000     0.328230000000     0.200220000000    -0.0910492  
C86      C      0.028860000000     0.328650000000     0.231440000000     0.0738803  
C87      C      0.976660000000     0.338170000000     0.231690000000     0.0742906  
C88      C      0.002460000000     0.333430000000     0.151590000000     0.0340464  
C89      C      0.007940000000     0.307060000000     0.135790000000    -0.0911166  
C90      C      0.007490000000     0.307370000000     0.104570000000     0.0737272  
C91      C      0.997420000000     0.359470000000     0.104560000000     0.0742668  
C92      C      0.996990000000     0.359790000000     0.135790000000    -0.0904886  
C93      C      0.029000000000     0.533960000000     0.337420000000    -0.0891524  
C94      C      0.003070000000     0.517270000000     0.331400000000     0.0337964  
C95      C      0.976830000000     0.533010000000     0.324360000000    -0.0889796  
C96      C      0.976740000000     0.564230000000     0.324170000000     0.0744964  
C97      C      0.028320000000     0.565180000000     0.336120000000     0.0737851  
C98      C      0.003310000000     0.483810000000     0.332490000000     0.0337522  
C99      C      0.029410000000     0.467520000000     0.326190000000    -0.0892751  
C100     C      0.029210000000     0.436300000000     0.327500000000     0.0737946  
C101     C      0.977740000000     0.436440000000     0.339970000000     0.0743109  
C102     C      0.977360000000     0.467670000000     0.339780000000    -0.0888023  
C103     C      0.002600000000     0.866030000000     0.358520000000    -0.091558   
C104     C      0.997330000000     0.850540000000     0.331940000000     0.035011   
C105     C      0.992360000000     0.866650000000     0.305660000000    -0.0910532  
C106     C      0.993220000000     0.897870000000     0.306270000000     0.0740803  
C107     C      0.002630000000     0.897260000000     0.358490000000     0.0735668  
C108     C      0.997670000000     0.817610000000     0.331500000000     0.0351847  
C109     C      0.024490000000     0.802170000000     0.335530000000    -0.0918428  
C110     C      0.024640000000     0.770970000000     0.334690000000     0.0738386  
C111     C      0.972140000000     0.770220000000     0.326960000000     0.0740067  
C112     C      0.971320000000     0.801470000000     0.327000000000    -0.0910417  
C113     C      0.998210000000     0.641780000000     0.131390000000    -0.0906443  
C114     C      0.002460000000     0.668510000000     0.146920000000     0.0339421  
C115     C      0.006370000000     0.695000000000     0.130870000000    -0.090928   
C116     C      0.005590000000     0.694410000000     0.099630000000     0.0734422  
C117     C      0.998160000000     0.641870000000     0.100170000000     0.0742143  
C118     C      0.002260000000     0.668740000000     0.179850000000     0.0339806  
C119     C      0.975510000000     0.664630000000     0.195380000000    -0.0906562  
C120     C      0.975580000000     0.664770000000     0.226590000000     0.0743704  
C121     C      0.028130000000     0.672090000000     0.227150000000     0.0735516  
C122     C      0.028750000000     0.672680000000     0.195900000000    -0.0908108  
C123     C      0.977510000000     0.326140000000     0.468520000000    -0.0890002  
C124     C      0.003520000000     0.332560000000     0.484870000000     0.0338219  
C125     C      0.029710000000     0.339100000000     0.468800000000    -0.0891399  
C126     C      0.029520000000     0.338790000000     0.437550000000     0.073808   
C127     C      0.977910000000     0.326930000000     0.437330000000     0.0745748  
C128     C      0.003260000000     0.332410000000     0.518340000000     0.0338211  
C129     C      0.977130000000     0.339310000000     0.534340000000    -0.0888599  
C130     C      0.977070000000     0.338460000000     0.565550000000     0.0744417  
C131     C      0.028430000000     0.325540000000     0.565980000000     0.0738131  
C132     C      0.029060000000     0.325280000000     0.534750000000    -0.0893199  
C133     C      0.026750000000     0.338100000000     0.803040000000    -0.0908823  
C134     C      0.000310000000     0.332510000000     0.818680000000     0.0340754  
C135     C      0.974130000000     0.326670000000     0.802680000000    -0.0904004  
C136     C      0.974700000000     0.326890000000     0.771450000000     0.0742797  
C137     C      0.026710000000     0.337410000000     0.771820000000     0.0737583  
C138     C      0.000070000000     0.332730000000     0.851630000000     0.0339748  
C139     C      0.994490000000     0.306470000000     0.867580000000    -0.0902567  
C140     C      0.994990000000     0.306920000000     0.898810000000     0.074205   
C141     C      0.005230000000     0.358990000000     0.898550000000     0.073818   
C142     C      0.005630000000     0.359150000000     0.867320000000    -0.0907713  
C143     C      0.006420000000     0.132570000000     0.694200000000    -0.0906354  
C144     C      0.000890000000     0.148730000000     0.668050000000     0.0337859  
C145     C      0.994930000000     0.133250000000     0.641600000000    -0.0901492  
C146     C      0.994890000000     0.102020000000     0.641600000000     0.0736917  
C147     C      0.005470000000     0.101350000000     0.693600000000     0.0731237  
C148     C      0.001090000000     0.181690000000     0.668390000000     0.0340745  
C149     C      0.974930000000     0.197670000000     0.662460000000    -0.0903907  
C150     C      0.975380000000     0.228890000000     0.663080000000     0.0742287  
C151     C      0.027260000000     0.228590000000     0.674260000000     0.0735823  
C152     C      0.027400000000     0.197340000000     0.674550000000    -0.0907724  
C153     C      0.972490000000     0.672830000000     0.529920000000    -0.0894167  
C154     C      0.998560000000     0.666270000000     0.513680000000     0.0348124  
C155     C      0.024580000000     0.659380000000     0.529870000000    -0.0899707  
C156     C      0.024290000000     0.659760000000     0.561090000000     0.073819   
C157     C      0.972780000000     0.672090000000     0.561150000000     0.0740598  
C158     C      0.998690000000     0.666690000000     0.480220000000     0.0348729  
C159     C      0.972730000000     0.660230000000     0.463740000000    -0.0892874  
C160     C      0.973270000000     0.661060000000     0.432500000000     0.0741886  
C161     C      0.024800000000     0.673290000000     0.433060000000     0.0739134  
C162     C      0.024840000000     0.673580000000     0.464270000000    -0.0901612  
C163     C      0.974580000000     0.531220000000     0.658450000000    -0.0886524  
C164     C      0.000770000000     0.515470000000     0.665700000000     0.0336632  
C165     C      0.026590000000     0.532120000000     0.672150000000    -0.0891378  
C166     C      0.025910000000     0.563320000000     0.670970000000     0.0734486  
C167     C      0.974480000000     0.562440000000     0.658360000000     0.0739133  
C168     C      0.001110000000     0.482020000000     0.666610000000     0.0339312  
C169     C      0.975210000000     0.465790000000     0.673760000000    -0.0890046  
C170     C      0.975730000000     0.434580000000     0.673940000000     0.074555   
C171     C      0.027240000000     0.434640000000     0.661640000000     0.0737885  
C172     C      0.027300000000     0.465860000000     0.660360000000    -0.0892657  
C173     C      0.002120000000     0.864820000000     0.638790000000    -0.0915326  
C174     C      0.996650000000     0.848750000000     0.665000000000     0.0350201  
C175     C      0.991110000000     0.864320000000     0.691500000000    -0.090994   
C176     C      0.991590000000     0.895550000000     0.691490000000     0.074023   
C177     C      0.001700000000     0.896050000000     0.639410000000     0.073606   
C178     C      0.996960000000     0.815800000000     0.664720000000     0.0350549  
C179     C      0.970840000000     0.799650000000     0.670420000000    -0.0910437  
C180     C      0.971490000000     0.768430000000     0.669740000000     0.0740121  
C181     C      0.023450000000     0.769070000000     0.659020000000     0.0736876  
C182     C      0.023410000000     0.800300000000     0.658790000000    -0.0914921  
C183     C      0.994440000000     0.638970000000     0.863020000000    -0.0910598  
C184     C      0.999280000000     0.665310000000     0.846950000000     0.0351756  
C185     C      0.004250000000     0.691920000000     0.862490000000    -0.0917184  
C186     C      0.003970000000     0.691880000000     0.893710000000     0.0737997  
C187     C      0.995040000000     0.639580000000     0.894250000000     0.0743018  
C188     C      0.999220000000     0.665090000000     0.814010000000     0.0351172  
C189     C      0.025410000000     0.671180000000     0.798140000000    -0.0915778  
C190     C      0.025000000000     0.670900000000     0.766920000000     0.0736824  
C191     C      0.973120000000     0.659750000000     0.767040000000     0.0741382  
C192     C      0.972920000000     0.659130000000     0.798270000000    -0.0910569  
C193     C      0.801690000000     0.976200000000     0.337290000000    -0.0900509  
C194     C      0.817480000000     0.002910000000     0.333950000000     0.0336419  
C195     C      0.801700000000     0.029650000000     0.330730000000    -0.0909678  
C196     C      0.770470000000     0.029310000000     0.331200000000     0.0737221  
C197     C      0.770470000000     0.976570000000     0.337050000000     0.0746647  
C198     C      0.850400000000     0.002860000000     0.333840000000     0.0335342  
C199     C      0.866260000000     0.997900000000     0.360260000000    -0.0899441  
C200     C      0.897480000000     0.997990000000     0.359800000000     0.0747524  
C201     C      0.897350000000     0.006930000000     0.307490000000     0.0734728  
C202     C      0.866120000000     0.007600000000     0.307300000000    -0.0908706  
C203     C      0.693700000000     0.006080000000     0.135550000000    -0.0908695  
C204     C      0.667370000000     0.000780000000     0.151470000000     0.0334968  
C205     C      0.640920000000     0.995400000000     0.135770000000    -0.0899251  
C206     C      0.641120000000     0.995790000000     0.104540000000     0.0745171  
C207     C      0.693270000000     0.005600000000     0.104320000000     0.0734217  
C208     C      0.667440000000     0.001090000000     0.184410000000     0.0336422  
C209     C      0.672520000000     0.027700000000     0.199910000000    -0.0909961  
C210     C      0.672090000000     0.027730000000     0.231130000000     0.073691   
C211     C      0.662810000000     0.975490000000     0.231740000000     0.0745855  
C212     C      0.662370000000     0.974820000000     0.200510000000    -0.0899008  
C213     C      0.533390000000     0.976950000000     0.341730000000    -0.0884055  
C214     C      0.517120000000     0.002910000000     0.334800000000     0.0333678  
C215     C      0.533280000000     0.028950000000     0.327950000000    -0.0893145  
C216     C      0.564510000000     0.028690000000     0.328440000000     0.0737978  
C217     C      0.564600000000     0.977270000000     0.341100000000     0.0747919  
C218     C      0.483660000000     0.002730000000     0.334590000000     0.0334305  
C219     C      0.467720000000     0.976540000000     0.327880000000    -0.0885532  
C220     C      0.436520000000     0.976540000000     0.328280000000     0.0749315  
C221     C      0.435940000000     0.028100000000     0.340340000000     0.0737661  
C222     C      0.467180000000     0.028690000000     0.341050000000    -0.0892132  
C223     C      0.134690000000     0.002790000000     0.359190000000    -0.0921435  
C224     C      0.150360000000     0.998040000000     0.332620000000     0.035455   
C225     C      0.134440000000     0.993430000000     0.306160000000    -0.0911296  
C226     C      0.103200000000     0.994110000000     0.306600000000     0.0740669  
C227     C      0.103460000000     0.002670000000     0.358970000000     0.0731478  
C228     C      0.183290000000     0.998400000000     0.332470000000     0.0355165  
C229     C      0.198720000000     0.025190000000     0.336770000000    -0.0922549  
C230     C      0.229930000000     0.025290000000     0.336480000000     0.0733842  
C231     C      0.230710000000     0.972800000000     0.328690000000     0.0740888  
C232     C      0.199470000000     0.972040000000     0.328200000000    -0.091049   
C233     C      0.339190000000     0.976770000000     0.198980000000    -0.0900413  
C234     C      0.335410000000     0.003650000000     0.183590000000     0.0335246  
C235     C      0.331340000000     0.030040000000     0.199770000000    -0.0908362  
C236     C      0.331320000000     0.029180000000     0.231000000000     0.0734409  
C237     C      0.338450000000     0.976600000000     0.230190000000     0.0746447  
C238     C      0.335150000000     0.003970000000     0.150670000000     0.0335204  
C239     C      0.308300000000     0.007780000000     0.135230000000    -0.0910416  
C240     C      0.308170000000     0.006940000000     0.104020000000     0.0734861  
C241     C      0.360740000000     0.999720000000     0.103300000000     0.0745144  
C242     C      0.361560000000     0.999830000000     0.134540000000    -0.0899762  
C243     C      0.339120000000     0.024040000000     0.533760000000    -0.0903979  
C244     C      0.332320000000     0.998090000000     0.517410000000     0.0352463  
C245     C      0.325530000000     0.972000000000     0.533500000000    -0.0895342  
C246     C      0.325950000000     0.972200000000     0.564740000000     0.074277   
C247     C      0.338420000000     0.023660000000     0.564970000000     0.0734357  
C248     C      0.332220000000     0.998320000000     0.483930000000     0.035374   
C249     C      0.338720000000     0.972390000000     0.467430000000    -0.0894214  
C250     C      0.338220000000     0.973040000000     0.436180000000     0.0743074  
C251     C      0.326210000000     0.024610000000     0.436790000000     0.0736247  
C252     C      0.325600000000     0.024550000000     0.468000000000    -0.0907023  
C253     C      0.323380000000     0.023650000000     0.802000000000    -0.0919531  
C254     C      0.329220000000     0.997360000000     0.817800000000     0.035519   
C255     C      0.335230000000     0.971120000000     0.801970000000    -0.0911655  
C256     C      0.335050000000     0.971500000000     0.770740000000     0.0741732  
C257     C      0.324090000000     0.023420000000     0.770770000000     0.073209   
C258     C      0.329550000000     0.997410000000     0.850760000000     0.0355264  
C259     C      0.356250000000     0.992670000000     0.866220000000    -0.0911463  
C260     C      0.356400000000     0.993430000000     0.897430000000     0.0743703  
C261     C      0.304080000000     0.002260000000     0.898170000000     0.0730863  
C262     C      0.303290000000     0.002370000000     0.866920000000    -0.0918778  
C263     C      0.132300000000     0.002540000000     0.639920000000    -0.0921116  
C264     C      0.148100000000     0.996520000000     0.666170000000     0.0355103  
C265     C      0.132270000000     0.990700000000     0.692450000000    -0.0911401  
C266     C      0.101050000000     0.991440000000     0.692190000000     0.0742899  
C267     C      0.101070000000     0.002370000000     0.640270000000     0.0732183  
C268     C      0.181060000000     0.996610000000     0.666220000000     0.0356225  
C269     C      0.196760000000     0.023000000000     0.660580000000    -0.0921321  
C270     C      0.227970000000     0.022880000000     0.661270000000     0.0734337  
C271     C      0.228210000000     0.970880000000     0.671820000000     0.0742342  
C272     C      0.196980000000     0.970390000000     0.672050000000    -0.0911867  
C273     C      0.658620000000     0.977370000000     0.534060000000    -0.088359   
C274     C      0.665800000000     0.003520000000     0.518200000000     0.03333    
C275     C      0.672410000000     0.029360000000     0.534760000000    -0.0891455  
C276     C      0.671500000000     0.028730000000     0.565980000000     0.0736257  
C277     C      0.658830000000     0.977310000000     0.565280000000     0.0746979  
C278     C      0.666510000000     0.003740000000     0.484750000000     0.0333581  
C279     C      0.673440000000     0.977730000000     0.468610000000    -0.0885445  
C280     C      0.673370000000     0.978050000000     0.437420000000     0.0749581  
C281     C      0.661340000000     0.029620000000     0.437220000000     0.0735761  
C282     C      0.660310000000     0.029890000000     0.468470000000    -0.0889823  
C283     C      0.464770000000     0.025460000000     0.675890000000    -0.0914184  
C284     C      0.481380000000     0.999740000000     0.668980000000     0.0373739  
C285     C      0.465580000000     0.973510000000     0.661990000000    -0.0904052  
C286     C      0.434350000000     0.973320000000     0.662440000000     0.0746338  
C287     C      0.433560000000     0.024700000000     0.675240000000     0.0738595  
C288     C      0.514850000000     0.000250000000     0.669060000000     0.0313237  
C289     C      0.530720000000     0.026550000000     0.662500000000    -0.0883627  
C290     C      0.561960000000     0.026650000000     0.663010000000     0.0733081  
C291     C      0.562600000000     0.975100000000     0.675130000000     0.074362   
C292     C      0.531390000000     0.974410000000     0.675690000000    -0.087557   
C293     C      0.799310000000     0.975670000000     0.661490000000    -0.0898997  
C294     C      0.815210000000     0.001870000000     0.667420000000     0.0335462  
C295     C      0.799470000000     0.028130000000     0.673630000000    -0.0907536  
C296     C      0.768230000000     0.027860000000     0.673430000000     0.0735616  
C297     C      0.768100000000     0.976000000000     0.662210000000     0.0746547  
C298     C      0.848160000000     0.001740000000     0.667190000000     0.033652   
C299     C      0.863760000000     0.996170000000     0.640720000000    -0.0900318  
C300     C      0.894990000000     0.996070000000     0.640890000000     0.0746893  
C301     C      0.895400000000     0.005820000000     0.693050000000     0.0737642  
C302     C      0.864190000000     0.006820000000     0.693510000000    -0.0909649  
C303     C      0.659920000000     0.026610000000     0.802960000000    -0.0899098  
C304     C      0.665900000000     0.000210000000     0.818530000000     0.0313182  
C305     C      0.671750000000     0.974080000000     0.802460000000    -0.0888843  
C306     C      0.671150000000     0.974650000000     0.771230000000     0.074108   
C307     C      0.660240000000     0.026570000000     0.771740000000     0.0733789  
C308     C      0.666030000000     0.999980000000     0.851490000000     0.0380949  
C309     C      0.692400000000     0.994230000000     0.867180000000    -0.0923625  
C310     C      0.692250000000     0.994710000000     0.898410000000     0.0755853  
C311     C      0.640240000000     0.005260000000     0.898650000000     0.0745748  
C312     C      0.639790000000     0.005690000000     0.867420000000    -0.0933371  
C313     C      0.326510000000     0.801230000000     0.030390000000    -0.0904094  
C314     C      0.330830000000     0.817440000000     0.004060000000     0.032627   
C315     C      0.335440000000     0.802060000000     0.977300000000    -0.0891021  
C316     C      0.335440000000     0.770850000000     0.977200000000     0.0751417  
C317     C      0.327280000000     0.769980000000     0.029630000000     0.0730027  
C318     C      0.331030000000     0.850380000000     0.004410000000     0.0326703  
C319     C      0.304570000000     0.866420000000     0.008570000000    -0.0905422  
C320     C      0.305110000000     0.897670000000     0.007650000000     0.0731104  
C321     C      0.357580000000     0.897150000000     0.999730000000     0.075374   
C322     C      0.357700000000     0.865940000000     0.999880000000    -0.089038   
C323     C      0.199800000000     0.669110000000     0.970700000000    -0.0909112  
C324     C      0.183310000000     0.664750000000     0.996850000000     0.0356408  
C325     C      0.198400000000     0.660770000000     0.023870000000    -0.0927073  
C326     C      0.229610000000     0.661600000000     0.024430000000     0.0726309  
C327     C      0.231020000000     0.669200000000     0.971920000000     0.0743701  
C328     C      0.150400000000     0.664900000000     0.996110000000     0.0382473  
C329     C      0.134900000000     0.691640000000     0.991850000000    -0.0925859  
C330     C      0.103680000000     0.691640000000     0.992150000000     0.0752067  
C331     C      0.103080000000     0.639120000000     0.999720000000     0.0799706  
C332     C      0.134320000000     0.638450000000     0.000170000000    -0.0975723  
C333     C      0.532970000000     0.660500000000     0.978840000000    -0.0876201  
C334     C      0.517070000000     0.667340000000     0.005040000000     0.032462   
C335     C      0.533610000000     0.673380000000     0.031060000000    -0.0887947  
C336     C      0.564870000000     0.672500000000     0.030430000000     0.0731897  
C337     C      0.564160000000     0.660750000000     0.978800000000     0.0755101  
C338     C      0.483590000000     0.668260000000     0.004990000000     0.0324783  
C339     C      0.467780000000     0.675520000000     0.978850000000    -0.0876676  
C340     C      0.436600000000     0.675200000000     0.978680000000     0.0755836  
C341     C      0.435700000000     0.662590000000     0.030100000000     0.0731175  
C342     C      0.466970000000     0.661770000000     0.030840000000    -0.0887338  
C343     C      0.671960000000     0.801780000000     0.028670000000    -0.0907672  
C344     C      0.666210000000     0.817550000000     0.002350000000     0.0328362  
C345     C      0.660560000000     0.801720000000     0.976040000000    -0.0891132  
C346     C      0.661150000000     0.770500000000     0.976360000000     0.0753176  
C347     C      0.671650000000     0.770560000000     0.028370000000     0.0734879  
C348     C      0.666260000000     0.850490000000     0.002280000000     0.0327624  
C349     C      0.639920000000     0.866340000000     0.996770000000    -0.0889758  
C350     C      0.640320000000     0.897570000000     0.997060000000     0.0753736  
C351     C      0.692440000000     0.897470000000     0.007040000000     0.0735158  
C352     C      0.692670000000     0.866250000000     0.007650000000    -0.0908258  
C353     C      0.802250000000     0.664810000000     0.025520000000    -0.0930242  
C354     C      0.817450000000     0.669270000000     0.998630000000     0.0362632  
C355     C      0.801050000000     0.673530000000     0.972400000000    -0.0909311  
C356     C      0.769810000000     0.672880000000     0.973400000000     0.07405    
C357     C      0.771040000000     0.664920000000     0.025850000000     0.0726183  
C358     C      0.850380000000     0.668980000000     0.997970000000     0.0364241  
C359     C      0.865920000000     0.642240000000     0.002120000000    -0.093294   
C360     C      0.897140000000     0.642250000000     0.001570000000     0.0726725  
C361     C      0.897690000000     0.694740000000     0.993800000000     0.0742687  
C362     C      0.866430000000     0.695410000000     0.993590000000    -0.0911269  
C363     C      0.341330000000     0.533770000000     0.972770000000    -0.0894046  
C364     C      0.334820000000     0.517090000000     0.998580000000     0.0360867  
C365     C      0.328050000000     0.532830000000     0.024890000000    -0.0914382  
C366     C      0.328400000000     0.564040000000     0.025120000000     0.072819   
C367     C      0.340610000000     0.565000000000     0.973590000000     0.0742921  
C368     C      0.335040000000     0.483630000000     0.998140000000     0.03625    
C369     C      0.328100000000     0.467670000000     0.972010000000    -0.0896386  
C370     C      0.328550000000     0.436420000000     0.972040000000     0.0744945  
C371     C      0.341410000000     0.435980000000     0.023410000000     0.0729596  
C372     C      0.342050000000     0.467180000000     0.023950000000    -0.0915453  
C373     C      0.199910000000     0.327840000000     0.972070000000    -0.0911322  
C374     C      0.184360000000     0.333430000000     0.998570000000     0.0361948  
C375     C      0.200430000000     0.339080000000     0.024730000000    -0.0930096  
C376     C      0.231660000000     0.338660000000     0.024100000000     0.0727935  
C377     C      0.231150000000     0.328320000000     0.972060000000     0.0743414  
C378     C      0.151400000000     0.333400000000     0.998950000000     0.0370124  
C379     C      0.135640000000     0.359730000000     0.004710000000    -0.0938245  
C380     C      0.104410000000     0.359380000000     0.004820000000     0.0742963  
C381     C      0.104300000000     0.307280000000     0.994740000000     0.0760781  
C382     C      0.135530000000     0.307020000000     0.993740000000    -0.0919863  
C383     C      0.339630000000     0.199040000000     0.970760000000    -0.0913116  
C384     C      0.334220000000     0.183270000000     0.997160000000     0.0364376  
C385     C      0.328830000000     0.199110000000     0.023510000000    -0.0931424  
C386     C      0.329260000000     0.230320000000     0.023160000000     0.0728308  
C387     C      0.339190000000     0.230280000000     0.971040000000     0.0744464  
C388     C      0.333920000000     0.150330000000     0.997240000000     0.0363859  
C389     C      0.360240000000     0.134200000000     0.992510000000    -0.0911629  
C390     C      0.359630000000     0.102970000000     0.993460000000     0.0744664  
C391     C      0.307340000000     0.103630000000     0.002480000000     0.0727008  
C392     C      0.307310000000     0.134850000000     0.002390000000    -0.0932577  
C393     C      0.675160000000     0.533360000000     0.027750000000    -0.089085   
C394     C      0.668760000000     0.517230000000     0.001560000000     0.0325302  
C395     C      0.662180000000     0.533560000000     0.975550000000    -0.0874566  
C396     C      0.662580000000     0.564770000000     0.976010000000     0.0755168  
C397     C      0.674360000000     0.564580000000     0.027640000000     0.0735836  
C398     C      0.668850000000     0.483740000000     0.001380000000     0.032541   
C399     C      0.675310000000     0.467650000000     0.975180000000    -0.0873719  
C400     C      0.674690000000     0.436420000000     0.975290000000     0.0753877  
C401     C      0.662960000000     0.436160000000     0.026930000000     0.0737243  
C402     C      0.662390000000     0.467380000000     0.027390000000    -0.0891222  
C403     C      0.468590000000     0.340100000000     0.971040000000    -0.0895393  
C404     C      0.484730000000     0.333110000000     0.997060000000     0.0361676  
C405     C      0.468440000000     0.325760000000     0.022880000000    -0.0916214  
C406     C      0.437250000000     0.326210000000     0.022500000000     0.0730973  
C407     C      0.437340000000     0.339430000000     0.971220000000     0.074435   
C408     C      0.518190000000     0.333560000000     0.997400000000     0.0362668  
C409     C      0.534860000000     0.327480000000     0.971490000000    -0.0896082  
C410     C      0.566100000000     0.328150000000     0.972330000000     0.0746381  
C411     C      0.565130000000     0.339590000000     0.024030000000     0.0731685  
C412     C      0.533930000000     0.340030000000     0.023780000000    -0.0915905  
C413     C      0.803140000000     0.338050000000     0.977170000000    -0.0891553  
C414     C      0.818490000000     0.333260000000     0.003920000000     0.0327111  
C415     C      0.802240000000     0.328400000000     0.030140000000    -0.0905275  
C416     C      0.770990000000     0.328800000000     0.029280000000     0.0731654  
C417     C      0.771940000000     0.337600000000     0.976960000000     0.0753295  
C418     C      0.851430000000     0.333350000000     0.004300000000     0.032733   
C419     C      0.867280000000     0.306970000000     0.009540000000    -0.0907126  
C420     C      0.898510000000     0.307260000000     0.008650000000     0.0732234  
C421     C      0.898400000000     0.359390000000     0.998700000000     0.0753715  
C422     C      0.867180000000     0.359720000000     0.998730000000    -0.0890193  
C423     C      0.673460000000     0.199150000000     0.974290000000    -0.0889258  
C424     C      0.667600000000     0.183380000000     0.000590000000     0.0327382  
C425     C      0.661950000000     0.199230000000     0.026890000000    -0.0907053  
C426     C      0.662630000000     0.230450000000     0.026590000000     0.073375   
C427     C      0.673230000000     0.230390000000     0.974590000000     0.0750752  
C428     C      0.667410000000     0.150430000000     0.000630000000     0.0326476  
C429     C      0.641020000000     0.134770000000     0.006430000000    -0.0907481  
C430     C      0.641180000000     0.103540000000     0.006150000000     0.0732796  
C431     C      0.693190000000     0.103240000000     0.995600000000     0.0750239  
C432     C      0.693640000000     0.134460000000     0.994970000000    -0.0888876  
H1       H      0.996020000000     0.146240000000     0.381760000000     0.0511578  
H2       H      0.995750000000     0.091800000000     0.381260000000     0.0221749  
H3       H      0.008810000000     0.092220000000     0.286360000000     0.0219486  
H4       H      0.009810000000     0.146660000000     0.286520000000     0.0508296  
H5       H      0.051030000000     0.187320000000     0.330070000000     0.050865   
H6       H      0.050980000000     0.241780000000     0.330570000000     0.0219602  
H7       H      0.955500000000     0.241980000000     0.338380000000     0.0220216  
H8       H      0.955170000000     0.187550000000     0.338590000000     0.0510035  
H9       H      0.049810000000     0.324180000000     0.188400000000     0.0507121  
H10      H      0.049900000000     0.324660000000     0.242810000000     0.0219103  
H11      H      0.955730000000     0.342130000000     0.243270000000     0.0219717  
H12      H      0.955340000000     0.342680000000     0.188820000000     0.0508052  
H13      H      0.012230000000     0.286300000000     0.147510000000     0.0506841  
H14      H      0.011660000000     0.286430000000     0.093090000000     0.0217945  
H15      H      0.993210000000     0.380410000000     0.093080000000     0.022031   
H16      H      0.992750000000     0.380570000000     0.147510000000     0.0509636  
H17      H      0.956350000000     0.521480000000     0.318640000000     0.0486075  
H18      H      0.955880000000     0.575320000000     0.318730000000     0.0216113  
H19      H      0.048870000000     0.577080000000     0.341030000000     0.0217285  
H20      H      0.049750000000     0.523190000000     0.343630000000     0.0487138  
H21      H      0.049930000000     0.478590000000     0.319760000000     0.0486602  
H22      H      0.049900000000     0.424730000000     0.322380000000     0.0218267  
H23      H      0.957120000000     0.425010000000     0.345630000000     0.0217979  
H24      H      0.956770000000     0.478890000000     0.345690000000     0.0487576  
H25      H      0.988310000000     0.855160000000     0.284720000000     0.0510809  
H26      H      0.989500000000     0.909590000000     0.285370000000     0.0221877  
H27      H      0.006750000000     0.908490000000     0.379580000000     0.0221489  
H28      H      0.006530000000     0.854060000000     0.379220000000     0.0510892  
H29      H      0.045250000000     0.814160000000     0.339000000000     0.0511188  
H30      H      0.045940000000     0.759820000000     0.337770000000     0.0219626  
H31      H      0.951230000000     0.758440000000     0.323570000000     0.0219061  
H32      H      0.950210000000     0.812930000000     0.323840000000     0.0510006  
H33      H      0.009620000000     0.716060000000     0.142400000000     0.0507585  
H34      H      0.008530000000     0.715440000000     0.087920000000     0.0217319  
H35      H      0.994880000000     0.620640000000     0.088940000000     0.0219036  
H36      H      0.995100000000     0.620920000000     0.143320000000     0.0510454  
H37      H      0.954650000000     0.661510000000     0.183450000000     0.050922   
H38      H      0.954320000000     0.661600000000     0.237820000000     0.0219725  
H39      H      0.049150000000     0.675060000000     0.238860000000     0.0219451  
H40      H      0.049820000000     0.675840000000     0.184360000000     0.0507993  
H41      H      0.050310000000     0.344890000000     0.480100000000     0.0487129  
H42      H      0.050270000000     0.343980000000     0.426120000000     0.0217357  
H43      H      0.957210000000     0.321860000000     0.425760000000     0.0217702  
H44      H      0.956830000000     0.320110000000     0.479550000000     0.0486201  
H45      H      0.956740000000     0.345770000000     0.523030000000     0.048752   
H46      H      0.956330000000     0.343940000000     0.576870000000     0.0218075  
H47      H      0.048910000000     0.319890000000     0.577660000000     0.0218684  
H48      H      0.049680000000     0.319060000000     0.523730000000     0.048688   
H49      H      0.953300000000     0.322300000000     0.814260000000     0.0508215  
H50      H      0.953890000000     0.322440000000     0.759820000000     0.0220285  
H51      H      0.047710000000     0.341710000000     0.760490000000     0.0220973  
H52      H      0.047390000000     0.342630000000     0.814890000000     0.0508989  
H53      H      0.990160000000     0.285650000000     0.855970000000     0.0508818  
H54      H      0.990770000000     0.286050000000     0.910390000000     0.0222834  
H55      H      0.009530000000     0.379960000000     0.909920000000     0.0222358  
H56      H      0.009980000000     0.379850000000     0.855490000000     0.0509331  
H57      H      0.990600000000     0.145220000000     0.620980000000     0.0508294  
H58      H      0.990300000000     0.090820000000     0.620600000000     0.0220788  
H59      H      0.009670000000     0.089590000000     0.714380000000     0.0219707  
H60      H      0.011030000000     0.144020000000     0.715050000000     0.0505644  
H61      H      0.954190000000     0.186090000000     0.657670000000     0.0507741  
H62      H      0.954590000000     0.240480000000     0.658500000000     0.022081   
H63      H      0.048150000000     0.239960000000     0.678940000000     0.0220148  
H64      H      0.048030000000     0.185500000000     0.679180000000     0.050643   
H65      H      0.045160000000     0.653310000000     0.518690000000     0.0488418  
H66      H      0.044960000000     0.654360000000     0.572550000000     0.0218028  
H67      H      0.952110000000     0.677350000000     0.572690000000     0.0218529  
H68      H      0.951920000000     0.678990000000     0.518780000000     0.0488019  
H69      H      0.952050000000     0.654090000000     0.474700000000     0.0488139  
H70      H      0.952700000000     0.655890000000     0.420760000000     0.0216994  
H71      H      0.045580000000     0.678700000000     0.421800000000     0.0216772  
H72      H      0.045330000000     0.679590000000     0.475630000000     0.0487603  
H73      H      0.047270000000     0.521330000000     0.678590000000     0.0486344  
H74      H      0.046420000000     0.575180000000     0.676180000000     0.0219881  
H75      H      0.953700000000     0.573580000000     0.652710000000     0.0218888  
H76      H      0.954180000000     0.519670000000     0.652480000000     0.0487333  
H77      H      0.954540000000     0.476940000000     0.679590000000     0.0487213  
H78      H      0.955120000000     0.423070000000     0.679520000000     0.0218705  
H79      H      0.047990000000     0.423160000000     0.656590000000     0.0218469  
H80      H      0.047800000000     0.477040000000     0.654030000000     0.0487587  
H81      H      0.986850000000     0.852400000000     0.712160000000     0.050968   
H82      H      0.987420000000     0.906840000000     0.712540000000     0.0221843  
H83      H      0.005950000000     0.907720000000     0.618590000000     0.0220209  
H84      H      0.006440000000     0.853310000000     0.617910000000     0.050969   
H85      H      0.950000000000     0.811110000000     0.675040000000     0.0508981  
H86      H      0.950730000000     0.756680000000     0.674110000000     0.022039   
H87      H      0.044470000000     0.757860000000     0.654490000000     0.0220254  
H88      H      0.044010000000     0.812280000000     0.654350000000     0.0508865  
H89      H      0.008010000000     0.712680000000     0.850570000000     0.0509008  
H90      H      0.007780000000     0.713020000000     0.904950000000     0.0220011  
H91      H      0.991370000000     0.618670000000     0.905960000000     0.0221252  
H92      H      0.990580000000     0.618010000000     0.851500000000     0.0512315  
H93      H      0.046120000000     0.675870000000     0.809820000000     0.0509377  
H94      H      0.045810000000     0.675600000000     0.755400000000     0.0220674  
H95      H      0.952230000000     0.655190000000     0.755600000000     0.0220436  
H96      H      0.952270000000     0.654420000000     0.810040000000     0.0509911  
H97      H      0.813450000000     0.050680000000     0.328120000000     0.0508591  
H98      H      0.759000000000     0.050530000000     0.328760000000     0.0218996  
H99      H      0.758990000000     0.955360000000     0.339570000000     0.0219602  
H100     H      0.813430000000     0.955150000000     0.339810000000     0.0510165  
H101     H      0.854570000000     0.994190000000     0.381170000000     0.0511743  
H102     H      0.909000000000     0.994140000000     0.380790000000     0.0223241  
H103     H      0.908770000000     0.010530000000     0.286420000000     0.0220093  
H104     H      0.854330000000     0.011470000000     0.286490000000     0.0507582  
H105     H      0.620170000000     0.991300000000     0.147580000000     0.0510474  
H106     H      0.620110000000     0.991690000000     0.093160000000     0.0220737  
H107     H      0.714190000000     0.009670000000     0.092750000000     0.0218696  
H108     H      0.714530000000     0.010300000000     0.147180000000     0.0506078  
H109     H      0.676460000000     0.048400000000     0.187960000000     0.0507531  
H110     H      0.675970000000     0.048870000000     0.242360000000     0.0219526  
H111     H      0.658930000000     0.954630000000     0.243470000000     0.0219975  
H112     H      0.658400000000     0.953860000000     0.189020000000     0.0508305  
H113     H      0.522060000000     0.049460000000     0.321750000000     0.0486867  
H114     H      0.575980000000     0.049340000000     0.322960000000     0.0218084  
H115     H      0.576140000000     0.956650000000     0.346550000000     0.0217813  
H116     H      0.522280000000     0.956400000000     0.348010000000     0.0487377  
H117     H      0.479080000000     0.956030000000     0.321890000000     0.0486017  
H118     H      0.425270000000     0.955720000000     0.322970000000     0.0216917  
H119     H      0.424180000000     0.048680000000     0.345480000000     0.0216949  
H120     H      0.478140000000     0.049390000000     0.347060000000     0.0487478  
H121     H      0.146080000000     0.989760000000     0.285230000000     0.051058   
H122     H      0.091610000000     0.990670000000     0.285580000000     0.0220407  
H123     H      0.092100000000     0.006390000000     0.380060000000     0.0220065  
H124     H      0.146510000000     0.006420000000     0.380030000000     0.0510441  
H125     H      0.186700000000     0.045960000000     0.340110000000     0.0510276  
H126     H      0.241080000000     0.046560000000     0.339800000000     0.021945   
H127     H      0.242510000000     0.951870000000     0.325480000000     0.0219201  
H128     H      0.188030000000     0.950940000000     0.324850000000     0.0509709  
H129     H      0.328320000000     0.051180000000     0.188330000000     0.0507564  
H130     H      0.328170000000     0.050120000000     0.242810000000     0.021966   
H131     H      0.341280000000     0.955250000000     0.241320000000     0.0219638  
H132     H      0.342300000000     0.955970000000     0.186940000000     0.050981   
H133     H      0.287490000000     0.010950000000     0.147230000000     0.0507173  
H134     H      0.286840000000     0.009760000000     0.092850000000     0.0218082  
H135     H      0.381690000000     0.996480000000     0.091530000000     0.0220374  
H136     H      0.382680000000     0.996800000000     0.146010000000     0.0511338  
H137     H      0.319420000000     0.951480000000     0.522240000000     0.0488351  
H138     H      0.320510000000     0.951500000000     0.576150000000     0.0218324  
H139     H      0.343760000000     0.044280000000     0.576560000000     0.0218017  
H140     H      0.345360000000     0.044640000000     0.522700000000     0.0488376  
H141     H      0.344660000000     0.951650000000     0.478370000000     0.048883   
H142     H      0.343430000000     0.952480000000     0.424420000000     0.021673   
H143     H      0.321020000000     0.045460000000     0.425550000000     0.0216731  
H144     H      0.319570000000     0.045030000000     0.479360000000     0.0487982  
H145     H      0.339840000000     0.950420000000     0.813680000000     0.0509815  
H146     H      0.339720000000     0.950670000000     0.759260000000     0.0219998  
H147     H      0.319670000000     0.044320000000     0.759300000000     0.0220635  
H148     H      0.318740000000     0.044340000000     0.813730000000     0.0509746  
H149     H      0.376960000000     0.988810000000     0.854240000000     0.0512487  
H150     H      0.377630000000     0.989870000000     0.908610000000     0.0222075  
H151     H      0.283240000000     0.006090000000     0.909950000000     0.0220198  
H152     H      0.282260000000     0.006060000000     0.855470000000     0.0508423  
H153     H      0.143980000000     0.986030000000     0.713150000000     0.0510055  
H154     H      0.089560000000     0.987030000000     0.713080000000     0.0220664  
H155     H      0.089600000000     0.007030000000     0.619420000000     0.0217771  
H156     H      0.144030000000     0.007100000000     0.619210000000     0.0508478  
H157     H      0.184960000000     0.043680000000     0.656060000000     0.0509086  
H158     H      0.239360000000     0.043850000000     0.656970000000     0.0220581  
H159     H      0.239790000000     0.950050000000     0.676300000000     0.0219805  
H160     H      0.185350000000     0.949590000000     0.676450000000     0.0508776  
H161     H      0.678760000000     0.050020000000     0.523880000000     0.0486079  
H162     H      0.676840000000     0.049240000000     0.577760000000     0.0219305  
H163     H      0.653240000000     0.956550000000     0.576500000000     0.0217987  
H164     H      0.652490000000     0.956960000000     0.522620000000     0.0487385  
H165     H      0.679290000000     0.957100000000     0.479830000000     0.0485994  
H166     H      0.678760000000     0.957340000000     0.426020000000     0.0217272  
H167     H      0.656320000000     0.050320000000     0.425620000000     0.0217598  
H168     H      0.654180000000     0.050490000000     0.479580000000     0.0486532  
H169     H      0.477070000000     0.953160000000     0.655740000000     0.0492026  
H170     H      0.423170000000     0.952540000000     0.656880000000     0.0216878  
H171     H      0.421740000000     0.045160000000     0.680700000000     0.0217701  
H172     H      0.475620000000     0.046150000000     0.682200000000     0.0491069  
H173     H      0.519280000000     0.047000000000     0.656510000000     0.0484295  
H174     H      0.573210000000     0.047480000000     0.657780000000     0.0218872  
H175     H      0.574340000000     0.954540000000     0.680360000000     0.0219613  
H176     H      0.520490000000     0.953660000000     0.681710000000     0.0483107  
H177     H      0.811260000000     0.048780000000     0.678270000000     0.0506871  
H178     H      0.756790000000     0.048700000000     0.678190000000     0.0220038  
H179     H      0.756580000000     0.955160000000     0.657650000000     0.0221007  
H180     H      0.810960000000     0.954970000000     0.656670000000     0.0508112  
H181     H      0.851880000000     0.992180000000     0.619990000000     0.0510562  
H182     H      0.906300000000     0.991780000000     0.619880000000     0.0220763  
H183     H      0.907050000000     0.009670000000     0.713960000000     0.0219352  
H184     H      0.852640000000     0.011110000000     0.714370000000     0.0507012  
H185     H      0.676410000000     0.953280000000     0.813980000000     0.0504398  
H186     H      0.675630000000     0.953880000000     0.759550000000     0.0221073  
H187     H      0.655650000000     0.047540000000     0.760470000000     0.0221659  
H188     H      0.655370000000     0.047210000000     0.814870000000     0.0504907  
H189     H      0.713090000000     0.989800000000     0.855360000000     0.0515194  
H190     H      0.713200000000     0.990350000000     0.909800000000     0.0221072  
H191     H      0.619400000000     0.009660000000     0.910220000000     0.0219539  
H192     H      0.619000000000     0.010170000000     0.855810000000     0.0514187  
H193     H      0.338860000000     0.814110000000     0.956560000000     0.05091    
H194     H      0.339020000000     0.759760000000     0.955950000000     0.0219787  
H195     H      0.324050000000     0.758140000000     0.050530000000     0.0219825  
H196     H      0.322960000000     0.812650000000     0.051470000000     0.0506148  
H197     H      0.283550000000     0.854870000000     0.012030000000     0.0505058  
H198     H      0.284100000000     0.909360000000     0.010730000000     0.0219272  
H199     H      0.378760000000     0.908390000000     0.996180000000     0.0224339  
H200     H      0.378550000000     0.854030000000     0.996570000000     0.0511832  
H201     H      0.186130000000     0.657420000000     0.044500000000     0.0509897  
H202     H      0.240500000000     0.658610000000     0.045880000000     0.0220296  
H203     H      0.243060000000     0.672570000000     0.951150000000     0.0219933  
H204     H      0.188610000000     0.672290000000     0.949440000000     0.0510449  
H205     H      0.146860000000     0.712490000000     0.988720000000     0.0516761  
H206     H      0.092470000000     0.712900000000     0.988980000000     0.0219457  
H207     H      0.091350000000     0.618140000000     0.002900000000     0.0190225  
H208     H      0.145830000000     0.617390000000     0.003530000000     0.052068   
H209     H      0.522680000000     0.679320000000     0.051810000000     0.0484828  
H210     H      0.576700000000     0.677460000000     0.051010000000     0.0217281  
H211     H      0.575350000000     0.655500000000     0.957940000000     0.0216798  
H212     H      0.521590000000     0.654650000000     0.958320000000     0.048666   
H213     H      0.479240000000     0.681740000000     0.958470000000     0.0485211  
H214     H      0.425490000000     0.680770000000     0.957860000000     0.0215896  
H215     H      0.423810000000     0.657250000000     0.050550000000     0.0217437  
H216     H      0.477820000000     0.655490000000     0.051530000000     0.0485472  
H217     H      0.656090000000     0.813410000000     0.955300000000     0.0508281  
H218     H      0.656840000000     0.759000000000     0.955450000000     0.021966   
H219     H      0.676090000000     0.759100000000     0.049270000000     0.0220191  
H220     H      0.676370000000     0.813530000000     0.049400000000     0.0506814  
H221     H      0.619120000000     0.854650000000     0.992580000000     0.0510907  
H222     H      0.619410000000     0.909090000000     0.992830000000     0.0224744  
H223     H      0.713420000000     0.908910000000     0.011140000000     0.022025   
H224     H      0.713420000000     0.854500000000     0.011930000000     0.0505795  
H225     H      0.812310000000     0.676960000000     0.951220000000     0.0511604  
H226     H      0.757830000000     0.676090000000     0.952580000000     0.0221641  
H227     H      0.760080000000     0.661470000000     0.047200000000     0.0221931  
H228     H      0.814450000000     0.661430000000     0.046180000000     0.0510663  
H229     H      0.854000000000     0.621440000000     0.005590000000     0.0511015  
H230     H      0.908370000000     0.621000000000     0.004780000000     0.0216792  
H231     H      0.909400000000     0.715710000000     0.990500000000     0.0222704  
H232     H      0.854900000000     0.716470000000     0.990390000000     0.0514182  
H233     H      0.322050000000     0.521300000000     0.045290000000     0.048859   
H234     H      0.323030000000     0.575120000000     0.046000000000     0.0218751  
H235     H      0.345780000000     0.576910000000     0.953110000000     0.0219187  
H236     H      0.347390000000     0.522950000000     0.952000000000     0.0489897  
H237     H      0.321850000000     0.479050000000     0.951590000000     0.0489756  
H238     H      0.322990000000     0.425100000000     0.951340000000     0.0218223  
H239     H      0.346930000000     0.424300000000     0.043940000000     0.0218775  
H240     H      0.348390000000     0.478150000000     0.044560000000     0.0490049  
H241     H      0.188930000000     0.343440000000     0.045600000000     0.0509604  
H242     H      0.243330000000     0.342980000000     0.044910000000     0.0220406  
H243     H      0.242430000000     0.324030000000     0.951030000000     0.0219807  
H244     H      0.187980000000     0.323450000000     0.951440000000     0.0510072  
H245     H      0.147400000000     0.380520000000     0.008800000000     0.0511208  
H246     H      0.092980000000     0.380300000000     0.009230000000     0.0216433  
H247     H      0.092780000000     0.286320000000     0.990760000000     0.0218391  
H248     H      0.147200000000     0.286260000000     0.989280000000     0.0513583  
H249     H      0.324580000000     0.187420000000     0.044310000000     0.0509954  
H250     H      0.325110000000     0.241810000000     0.044110000000     0.0220606  
H251     H      0.343310000000     0.241750000000     0.950080000000     0.0219493  
H252     H      0.343800000000     0.187280000000     0.949990000000     0.0510668  
H253     H      0.381210000000     0.145670000000     0.988520000000     0.0513822  
H254     H      0.380530000000     0.091210000000     0.989910000000     0.0220603  
H255     H      0.286210000000     0.092440000000     0.006480000000     0.0217287  
H256     H      0.286570000000     0.146820000000     0.006100000000     0.0507366  
H257     H      0.656280000000     0.522510000000     0.954860000000     0.0486083  
H258     H      0.657370000000     0.576350000000     0.955350000000     0.0215526  
H259     H      0.679410000000     0.576020000000     0.048410000000     0.0214735  
H260     H      0.681180000000     0.522150000000     0.048320000000     0.0484442  
H261     H      0.681250000000     0.478890000000     0.954600000000     0.0484782  
H262     H      0.679780000000     0.425010000000     0.954510000000     0.0214316  
H263     H      0.657840000000     0.424560000000     0.047590000000     0.0215833  
H264     H      0.656440000000     0.478390000000     0.048090000000     0.048548   
H265     H      0.479540000000     0.319290000000     0.043380000000     0.0489233  
H266     H      0.425720000000     0.320460000000     0.043050000000     0.0218396  
H267     H      0.425850000000     0.345050000000     0.950620000000     0.0217928  
H268     H      0.479820000000     0.346570000000     0.950610000000     0.0489876  
H269     H      0.524040000000     0.321710000000     0.950630000000     0.048906   
H270     H      0.578010000000     0.323230000000     0.951790000000     0.0216779  
H271     H      0.576220000000     0.344630000000     0.044990000000     0.0217282  
H272     H      0.522420000000     0.345790000000     0.044270000000     0.0489555  
H273     H      0.813620000000     0.324660000000     0.051200000000     0.050604   
H274     H      0.759110000000     0.325120000000     0.050090000000     0.0219583  
H275     H      0.760860000000     0.341280000000     0.955700000000     0.0220223  
H276     H      0.815210000000     0.341820000000     0.956500000000     0.0508897  
H277     H      0.855600000000     0.286180000000     0.013820000000     0.0505119  
H278     H      0.910040000000     0.286300000000     0.012590000000     0.0219435  
H279     H      0.909820000000     0.380330000000     0.994350000000     0.0224657  
H280     H      0.855410000000     0.380490000000     0.994570000000     0.0511348  
H281     H      0.657400000000     0.187550000000     0.047620000000     0.0506147  
H282     H      0.658300000000     0.241950000000     0.047480000000     0.0220206  
H283     H      0.677720000000     0.241840000000     0.953700000000     0.0219481  
H284     H      0.677870000000     0.187410000000     0.953560000000     0.0506738  
H285     H      0.620350000000     0.146610000000     0.010850000000     0.050559   
H286     H      0.620230000000     0.092180000000     0.010600000000     0.0218545  
H287     H      0.714030000000     0.091640000000     0.991280000000     0.0221802  
H288     H      0.714430000000     0.146060000000     0.990470000000     0.0508446  
N1       N      0.002200000000     0.087950000000     0.333780000000    -0.207603   
N2       N      0.003250000000     0.245940000000     0.334480000000    -0.207413   
N3       N      0.002830000000     0.333400000000     0.247070000000    -0.207672   
N4       N      0.002420000000     0.333410000000     0.089050000000    -0.207742   
N5       N      0.002300000000     0.580210000000     0.329910000000    -0.207597   
N6       N      0.003500000000     0.420860000000     0.334010000000    -0.207533   
N7       N      0.998260000000     0.913080000000     0.332500000000    -0.207157   
N8       N      0.998640000000     0.755080000000     0.330610000000    -0.207279   
N9       N      0.001620000000     0.668020000000     0.084380000000    -0.207734   
N10      N      0.001710000000     0.668290000000     0.242390000000    -0.207486   
N11      N      0.003750000000     0.333020000000     0.421930000000    -0.207707   
N12      N      0.002570000000     0.331840000000     0.581270000000    -0.207674   
N13      N      0.000830000000     0.332050000000     0.756120000000    -0.207553   
N14      N      0.000200000000     0.333020000000     0.914190000000    -0.207412   
N15      N      0.999890000000     0.086170000000     0.667460000000    -0.207273   
N16      N      0.001400000000     0.244250000000     0.668730000000    -0.20744    
N17      N      0.998560000000     0.665900000000     0.576630000000    -0.207382   
N18      N      0.999180000000     0.667250000000     0.417280000000    -0.207363   
N19      N      0.999990000000     0.578390000000     0.664420000000    -0.207222   
N20      N      0.001570000000     0.419110000000     0.668070000000    -0.207573   
N21      N      0.996740000000     0.911320000000     0.665610000000    -0.207227   
N22      N      0.997650000000     0.753230000000     0.664280000000    -0.207317   
N23      N      0.999600000000     0.665870000000     0.909490000000    -0.20736    
N24      N      0.999000000000     0.665440000000     0.751470000000    -0.207288   
N25      N      0.754950000000     0.002950000000     0.334180000000    -0.207785   
N26      N      0.912930000000     0.002260000000     0.333580000000    -0.207872   
N27      N      0.667130000000     0.000690000000     0.088920000000    -0.207559   
N28      N      0.667440000000     0.001790000000     0.246950000000    -0.207759   
N29      N      0.580070000000     0.002980000000     0.334680000000    -0.207939   
N30      N      0.420720000000     0.002160000000     0.334270000000    -0.20794    
N31      N      0.087810000000     0.998620000000     0.332820000000    -0.206981   
N32      N      0.245840000000     0.999260000000     0.332670000000    -0.207025   
N33      N      0.334620000000     0.002610000000     0.246110000000    -0.207664   
N34      N      0.334200000000     0.002960000000     0.088140000000    -0.207877   
N35      N      0.332050000000     0.997900000000     0.580370000000    -0.207201   
N36      N      0.332330000000     0.999030000000     0.420980000000    -0.207169   
N37      N      0.329770000000     0.997510000000     0.755240000000    -0.206986   
N38      N      0.330500000000     0.998090000000     0.913320000000    -0.206807   
N39      N      0.085550000000     0.997120000000     0.666270000000    -0.207157   
N40      N      0.243610000000     0.996980000000     0.666690000000    -0.20718    
N41      N      0.665080000000     0.002820000000     0.581140000000    -0.20776    
N42      N      0.667480000000     0.003810000000     0.421810000000    -0.207901   
N43      N      0.418450000000     0.998790000000     0.668760000000    -0.207322   
N44      N      0.577790000000     0.001060000000     0.669010000000    -0.207715   
N45      N      0.752650000000     0.001940000000     0.667960000000    -0.207746   
N46      N      0.910710000000     0.000620000000     0.666910000000    -0.208623   
N47      N      0.665620000000     0.000750000000     0.755970000000    -0.207633   
N48      N      0.666330000000     0.000030000000     0.914040000000    -0.207955   
N49      N      0.331620000000     0.754890000000     0.003200000000    -0.207901   
N50      N      0.331440000000     0.912930000000     0.003320000000    -0.208121   
N51      N      0.245820000000     0.665710000000     0.998630000000    -0.206692   
N52      N      0.087860000000     0.665570000000     0.996010000000    -0.208551   
N53      N      0.580030000000     0.666670000000     0.004390000000    -0.20809    
N54      N      0.420640000000     0.668810000000     0.004090000000    -0.207982   
N55      N      0.666510000000     0.755020000000     0.002360000000    -0.208141   
N56      N      0.666430000000     0.913030000000     0.001960000000    -0.208322   
N57      N      0.754900000000     0.668710000000     0.999960000000    -0.205154   
N58      N      0.912940000000     0.668320000000     0.997620000000    -0.206452   
N59      N      0.334420000000     0.580030000000     0.999630000000    -0.205274   
N60      N      0.334870000000     0.420690000000     0.997620000000    -0.206832   
N61      N      0.246920000000     0.333500000000     0.997930000000    -0.206791   
N62      N      0.088840000000     0.333300000000     0.000080000000    -0.208342   
N63      N      0.334200000000     0.245820000000     0.997080000000    -0.206905   
N64      N      0.333350000000     0.087780000000     0.998300000000    -0.206852   
N65      N      0.668360000000     0.580180000000     0.001910000000    -0.208177   
N66      N      0.668800000000     0.420790000000     0.001020000000    -0.208308   
N67      N      0.421780000000     0.332870000000     0.996850000000    -0.206955   
N68      N      0.581120000000     0.333820000000     0.998480000000    -0.207038   
N69      N      0.755950000000     0.333190000000     0.002840000000    -0.208013   
N70      N      0.913970000000     0.333300000000     0.003350000000    -0.208248   
N71      N      0.668040000000     0.245930000000     0.000590000000    -0.208047   
N72      N      0.667110000000     0.087880000000     0.000970000000    -0.207967   
O1       O      0.711600000000     0.333890000000     0.976900000000    -0.557316   
O2       O      0.626750000000     0.332910000000     0.974650000000    -0.556966   
O3       O      0.669110000000     0.375890000000     0.975890000000    -0.555445   
O4       O      0.669710000000     0.290960000000     0.975730000000    -0.555623   
O5       O      0.666940000000     0.290910000000     0.025530000000    -0.557565   
O6       O      0.668290000000     0.375750000000     0.025770000000    -0.557714   
O7       O      0.625430000000     0.334230000000     0.024500000000    -0.56       
O8       O      0.710300000000     0.332510000000     0.026740000000    -0.555842   
O9       O      0.292120000000     0.334710000000     0.022460000000    -0.560019   
O10      O      0.376910000000     0.331560000000     0.021890000000    -0.560224   
O11      O      0.336130000000     0.375570000000     0.022290000000    -0.559929   
O12      O      0.333000000000     0.290770000000     0.022040000000    -0.560048   
O13      O      0.335440000000     0.290890000000     0.972230000000    -0.556709   
O14      O      0.332960000000     0.375810000000     0.972510000000    -0.556523   
O15      O      0.376680000000     0.334610000000     0.972100000000    -0.556387   
O16      O      0.291750000000     0.332130000000     0.972660000000    -0.556933   
O17      O      0.665570000000     0.710050000000     0.977410000000    -0.556704   
O18      O      0.667520000000     0.625220000000     0.977160000000    -0.556856   
O19      O      0.624370000000     0.666430000000     0.978460000000    -0.557255   
O20      O      0.709210000000     0.668770000000     0.976160000000    -0.554866   
O21      O      0.710580000000     0.667470000000     0.025990000000    -0.556851   
O22      O      0.625660000000     0.667740000000     0.028300000000    -0.554953   
O23      O      0.668390000000     0.625090000000     0.027040000000    -0.556161   
O24      O      0.668320000000     0.710010000000     0.027210000000    -0.556633   
O25      O      0.291630000000     0.667170000000     0.975150000000    -0.557653   
O26      O      0.376420000000     0.669250000000     0.977950000000    -0.557547   
O27      O      0.335270000000     0.625580000000     0.975640000000    -0.555013   
O28      O      0.333160000000     0.710430000000     0.977460000000    -0.557453   
O29      O      0.331700000000     0.709350000000     0.027300000000    -0.555053   
O30      O      0.332710000000     0.624440000000     0.025440000000    -0.556655   
O31      O      0.374900000000     0.667130000000     0.027770000000    -0.554481   
O32      O      0.289980000000     0.666180000000     0.024990000000    -0.558706   
O33      O      0.707710000000     0.976980000000     0.666640000000    -0.557421   
O34      O      0.622950000000     0.976530000000     0.669910000000    -0.557578   
O35      O      0.663690000000     0.977330000000     0.625820000000    -0.556106   
O36      O      0.666940000000     0.976310000000     0.710690000000    -0.556338   
O37      O      0.663910000000     0.026080000000     0.711240000000    -0.557331   
O38      O      0.666350000000     0.027140000000     0.626420000000    -0.557067   
O39      O      0.622620000000     0.026350000000     0.667600000000    -0.555607   
O40      O      0.707580000000     0.026740000000     0.670010000000    -0.555891   
O41      O      0.288400000000     0.022250000000     0.665900000000    -0.558606   
O42      O      0.373160000000     0.023120000000     0.669840000000    -0.558944   
O43      O      0.332780000000     0.022740000000     0.625430000000    -0.557731   
O44      O      0.328820000000     0.022540000000     0.710270000000    -0.557832   
O45      O      0.332090000000     0.972780000000     0.710170000000    -0.557545   
O46      O      0.330370000000     0.972920000000     0.625300000000    -0.557618   
O47      O      0.373740000000     0.973340000000     0.666840000000    -0.556958   
O48      O      0.288810000000     0.972440000000     0.668570000000    -0.556865   
O49      O      0.333440000000     0.026620000000     0.291670000000    -0.556576   
O50      O      0.331860000000     0.024770000000     0.376510000000    -0.559515   
O51      O      0.375290000000     0.026420000000     0.335070000000    -0.556139   
O52      O      0.290390000000     0.024930000000     0.333520000000    -0.558989   
O53      O      0.291320000000     0.975070000000     0.332570000000    -0.557161   
O54      O      0.376180000000     0.976590000000     0.333010000000    -0.557887   
O55      O      0.333750000000     0.974940000000     0.375470000000    -0.556468   
O56      O      0.334200000000     0.976760000000     0.290560000000    -0.557238   
O57      O      0.709930000000     0.027880000000     0.334570000000    -0.557122   
O58      O      0.625050000000     0.027870000000     0.333150000000    -0.557089   
O59      O      0.666600000000     0.028380000000     0.376530000000    -0.555479   
O60      O      0.668300000000     0.027300000000     0.291600000000    -0.557108   
O61      O      0.666540000000     0.977460000000     0.292310000000    -0.556572   
O62      O      0.668520000000     0.978540000000     0.377120000000    -0.558644   
O63      O      0.625060000000     0.978060000000     0.335810000000    -0.5569     
O64      O      0.709940000000     0.978010000000     0.334050000000    -0.557215   
O65      O      0.973990000000     0.664000000000     0.706520000000    -0.557118   
O66      O      0.973730000000     0.666960000000     0.621670000000    -0.55741    
O67      O      0.974460000000     0.623030000000     0.662630000000    -0.556844   
O68      O      0.973310000000     0.707910000000     0.665550000000    -0.557115   
O69      O      0.023090000000     0.708540000000     0.662660000000    -0.558273   
O70      O      0.024260000000     0.623720000000     0.665410000000    -0.558465   
O71      O      0.023560000000     0.664720000000     0.621570000000    -0.558138   
O72      O      0.023750000000     0.667440000000     0.706410000000    -0.558178   
O73      O      0.976680000000     0.289330000000     0.667140000000    -0.557626   
O74      O      0.976750000000     0.374130000000     0.669780000000    -0.557765   
O75      O      0.977190000000     0.333100000000     0.626020000000    -0.556707   
O76      O      0.976330000000     0.330440000000     0.710890000000    -0.556809   
O77      O      0.026130000000     0.333160000000     0.711330000000    -0.556905   
O78      O      0.026980000000     0.330130000000     0.626500000000    -0.556917   
O79      O      0.026580000000     0.374110000000     0.667340000000    -0.555955   
O80      O      0.026450000000     0.289200000000     0.670410000000    -0.556045   
O81      O      0.026060000000     0.668380000000     0.287800000000    -0.556174   
O82      O      0.024710000000     0.668470000000     0.372700000000    -0.558604   
O83      O      0.026330000000     0.625760000000     0.330560000000    -0.556367   
O84      O      0.024450000000     0.710640000000     0.330430000000    -0.558938   
O85      O      0.974590000000     0.709530000000     0.329750000000    -0.556707   
O86      O      0.976490000000     0.624640000000     0.328760000000    -0.557733   
O87      O      0.974870000000     0.666360000000     0.371890000000    -0.556482   
O88      O      0.976190000000     0.667420000000     0.287010000000    -0.557979   
O89      O      0.978190000000     0.334370000000     0.292260000000    -0.557123   
O90      O      0.978710000000     0.332440000000     0.377080000000    -0.558612   
O91      O      0.978550000000     0.375890000000     0.335680000000    -0.55694    
O92      O      0.978390000000     0.291000000000     0.334020000000    -0.557138   
O93      O      0.028260000000     0.290930000000     0.334990000000    -0.556625   
O94      O      0.028380000000     0.375840000000     0.333270000000    -0.556491   
O95      O      0.028560000000     0.334340000000     0.376810000000    -0.555384   
O96      O      0.028030000000     0.332460000000     0.291890000000    -0.557277   
O97      O      0.958980000000     0.308350000000     0.003640000000    -0.55634    
O98      O      0.043820000000     0.308350000000     0.999740000000    -0.553521   
O99      O      0.003300000000     0.308440000000     0.044080000000    -0.557071   
O100     O      0.999480000000     0.308240000000     0.959280000000    -0.554553   
O101     O      0.001930000000     0.358050000000     0.959120000000    -0.555589   
O102     O      0.000850000000     0.358250000000     0.044020000000    -0.55734    
O103     O      0.043840000000     0.358170000000     0.002090000000    -0.557031   
O104     O      0.958960000000     0.358150000000     0.001090000000    -0.557681   
O105     O      0.957540000000     0.642740000000     0.997910000000    -0.558055   
O106     O      0.042430000000     0.641320000000     0.996910000000    -0.557172   
O107     O      0.000370000000     0.642590000000     0.039710000000    -0.560431   
O108     O      0.999290000000     0.641470000000     0.954830000000    -0.557563   
O109     O      0.000600000000     0.691330000000     0.954140000000    -0.558975   
O110     O      0.001450000000     0.692450000000     0.039030000000    -0.558177   
O111     O      0.043280000000     0.691180000000     0.995990000000    -0.557958   
O112     O      0.958370000000     0.692600000000     0.996810000000    -0.555684   
O113     O      0.042920000000     0.000380000000     0.357890000000    -0.558668   
O114     O      0.958040000000     0.000250000000     0.358260000000    -0.557453   
O115     O      0.000530000000     0.957870000000     0.357740000000    -0.557129   
O116     O      0.000440000000     0.042780000000     0.358380000000    -0.557554   
O117     O      0.002230000000     0.043090000000     0.308550000000    -0.557065   
O118     O      0.998210000000     0.958290000000     0.307930000000    -0.55617    
O119     O      0.957840000000     0.002680000000     0.308450000000    -0.556557   
O120     O      0.042680000000     0.998670000000     0.308050000000    -0.556024   
O121     O      0.955820000000     0.000600000000     0.691650000000    -0.559419   
O122     O      0.040610000000     0.996380000000     0.691300000000    -0.558352   
O123     O      0.000340000000     0.040890000000     0.691910000000    -0.558892   
O124     O      0.996130000000     0.956070000000     0.691020000000    -0.557319   
O125     O      0.998470000000     0.956570000000     0.641210000000    -0.557602   
O126     O      0.997650000000     0.041460000000     0.642120000000    -0.558469   
O127     O      0.040500000000     0.999420000000     0.641530000000    -0.557874   
O128     O      0.955590000000     0.998630000000     0.641820000000    -0.557871   
O129     O      0.642020000000     0.999500000000     0.044020000000    -0.555293   
O130     O      0.641650000000     0.001580000000     0.959160000000    -0.555566   
O131     O      0.641670000000     0.958110000000     0.000560000000    -0.556711   
O132     O      0.642020000000     0.042990000000     0.002620000000    -0.556733   
O133     O      0.691820000000     0.042770000000     0.999900000000    -0.553999   
O134     O      0.691500000000     0.957940000000     0.002820000000    -0.556318   
O135     O      0.691450000000     0.998890000000     0.958930000000    -0.553783   
O136     O      0.691850000000     0.001780000000     0.043790000000    -0.556189   
O137     O      0.356340000000     0.998540000000     0.957770000000    -0.556882   
O138     O      0.358220000000     0.001230000000     0.042610000000    -0.557573   
O139     O      0.356780000000     0.957620000000     0.001380000000    -0.558874   
O140     O      0.357790000000     0.042460000000     0.998650000000    -0.556613   
O141     O      0.307940000000     0.043130000000     0.000270000000    -0.559291   
O142     O      0.306920000000     0.958240000000     0.002670000000    -0.555175   
O143     O      0.308360000000     0.002050000000     0.043700000000    -0.557702   
O144     O      0.306490000000     0.999700000000     0.958850000000    -0.553816   
V1       V      0.669310000000     0.333420000000     0.973810000000     1.39663    
V2       V      0.667730000000     0.333330000000     0.027610000000     1.39478    
V3       V      0.334540000000     0.333160000000     0.024150000000     1.39833    
V4       V      0.334190000000     0.333360000000     0.970370000000     1.39234    
V5       V      0.666660000000     0.667630000000     0.975320000000     1.39935    
V6       V      0.668250000000     0.667560000000     0.029120000000     1.39019    
V7       V      0.334160000000     0.668120000000     0.974580000000     1.39981    
V8       V      0.332300000000     0.666780000000     0.028350000000     1.38909    
V9       V      0.665330000000     0.974800000000     0.668240000000     1.3976     
V10      V      0.665100000000     0.028580000000     0.668850000000     1.39133    
V11      V      0.330770000000     0.024650000000     0.667860000000     1.39517    
V12      V      0.331290000000     0.970870000000     0.667720000000     1.39484    
V13      V      0.332740000000     0.027660000000     0.334200000000     1.39461    
V14      V      0.333850000000     0.973870000000     0.332900000000     1.39658    
V15      V      0.667480000000     0.029850000000     0.333980000000     1.39204    
V16      V      0.667510000000     0.976040000000     0.334810000000     1.39909    
V17      V      0.971870000000     0.665450000000     0.664090000000     1.39406    
V18      V      0.025660000000     0.666140000000     0.663990000000     1.39668    
V19      V      0.974750000000     0.331740000000     0.668440000000     1.39719    
V20      V      0.028530000000     0.331650000000     0.668930000000     1.39173    
V21      V      0.027360000000     0.668310000000     0.330350000000     1.39476    
V22      V      0.973560000000     0.666980000000     0.329350000000     1.39577    
V23      V      0.976490000000     0.333440000000     0.334740000000     1.39801    
V24      V      0.030290000000     0.333390000000     0.334270000000     1.3914     
V25      V      0.001400000000     0.306350000000     0.001690000000     1.38894    
V26      V      0.001400000000     0.360140000000     0.001570000000     1.39316    
V27      V      0.999900000000     0.640060000000     0.997340000000     1.40002    
V28      V      0.000920000000     0.693860000000     0.996500000000     1.39555    
V29      V      0.000490000000     0.000310000000     0.360050000000     1.39457    
V30      V      0.000240000000     0.000700000000     0.306260000000     1.39089    
V31      V      0.998230000000     0.998460000000     0.693460000000     1.39832    
V32      V      0.998040000000     0.999040000000     0.639680000000     1.39659    
V33      V      0.639850000000     0.000560000000     0.001600000000     1.39092    
V34      V      0.693640000000     0.000340000000     0.001350000000     1.38882    
V35      V      0.359250000000     0.999960000000     0.000090000000     1.39593    
V36      V      0.305450000000     0.000770000000     0.001380000000     1.38898    


