data_structure

_audit_creation_method RASPA-1.0
_audit_creation_date 2023-5-23
_audit_author_name 'Poobodin Mano'

_cell_length_a    29.89
_cell_length_b    29.8891
_cell_length_c    59.6683
_cell_angle_alpha 90
_cell_angle_beta  90
_cell_angle_gamma 90
_cell_volume      53306.8

_symmetry_cell_setting          triclinic
_symmetry_space_group_name_Hall 'P 1'
_symmetry_space_group_name_H-M  'P 1'
_symmetry_Int_Tables_number     1

_symmetry_equiv_pos_as_xyz 'x,y,z'

loop_
_atom_site_label
_atom_site_type_symbol
_atom_site_fract_x
_atom_site_fract_y
_atom_site_fract_z
_atom_site_charge
C1       C      0.999100000000     0.918660000000     0.124840000000     0.478595   
C2       C      0.999110000000     0.088470000000     0.125300000000     0.478467   
C3       C      0.999060000000     0.003010000000     0.167610000000     0.478551   
C4       C      0.999160000000     0.003950000000     0.082540000000     0.478582   
C5       C      0.999020000000     0.503000000000     0.082570000000     0.478603   
C6       C      0.998850000000     0.504260000000     0.167640000000     0.478295   
C7       C      0.998990000000     0.588500000000     0.124820000000     0.478645   
C8       C      0.998900000000     0.418690000000     0.125390000000     0.47846    
C9       C      0.497770000000     0.909420000000     0.125380000000     0.479051   
C10      C      0.499580000000     0.079210000000     0.124880000000     0.478902   
C11      C      0.498650000000     0.993900000000     0.082550000000     0.47883    
C12      C      0.498690000000     0.994910000000     0.167620000000     0.478723   
C13      C      0.498810000000     0.494960000000     0.082600000000     0.479496   
C14      C      0.498870000000     0.493540000000     0.167670000000     0.47899    
C15      C      0.499970000000     0.409380000000     0.124750000000     0.479374   
C16      C      0.497700000000     0.579190000000     0.125400000000     0.479193   
C17      C      0.999020000000     0.002040000000     0.917140000000     0.478791   
C18      C      0.998890000000     0.001160000000     0.832070000000     0.478509   
C19      C      0.998920000000     0.086500000000     0.874430000000     0.478676   
C20      C      0.998980000000     0.916690000000     0.874790000000     0.478396   
C21      C      0.999080000000     0.501550000000     0.917160000000     0.478617   
C22      C      0.998920000000     0.501630000000     0.832090000000     0.478423   
C23      C      0.998980000000     0.586500000000     0.874670000000     0.47853    
C24      C      0.999020000000     0.416690000000     0.874580000000     0.478661   
C25      C      0.500000000000     0.911440000000     0.874380000000     0.478971   
C26      C      0.498150000000     0.081230000000     0.874760000000     0.479017   
C27      C      0.498970000000     0.995860000000     0.917140000000     0.478759   
C28      C      0.499170000000     0.996800000000     0.832070000000     0.478784   
C29      C      0.500170000000     0.581250000000     0.874620000000     0.479216   
C30      C      0.497850000000     0.411430000000     0.874720000000     0.479438   
C31      C      0.498970000000     0.496400000000     0.917150000000     0.479452   
C32      C      0.499050000000     0.496280000000     0.832080000000     0.479228   
C33      C      0.998990000000     0.999730000000     0.332070000000     0.478438   
C34      C      0.998770000000     0.998770000000     0.417140000000     0.478363   
C35      C      0.083790000000     0.999210000000     0.374650000000     0.478727   
C36      C      0.913980000000     0.999170000000     0.374560000000     0.478765   
C37      C      0.913880000000     0.499080000000     0.374480000000     0.479409   
C38      C      0.083700000000     0.499110000000     0.374730000000     0.479338   
C39      C      0.998990000000     0.501100000000     0.332080000000     0.478556   
C40      C      0.998440000000     0.497300000000     0.417140000000     0.479193   
C41      C      0.498740000000     0.998260000000     0.332080000000     0.478709   
C42      C      0.499010000000     0.999240000000     0.417140000000     0.479086   
C43      C      0.583780000000     0.998840000000     0.374550000000     0.479033   
C44      C      0.413970000000     0.998790000000     0.374670000000     0.478815   
C45      C      0.499100000000     0.500260000000     0.417160000000     0.479338   
C46      C      0.498560000000     0.496500000000     0.332090000000     0.479098   
C47      C      0.413840000000     0.498450000000     0.374750000000     0.479233   
C48      C      0.583660000000     0.498520000000     0.374500000000     0.479385   
C49      C      0.999180000000     0.998680000000     0.582540000000     0.478601   
C50      C      0.998910000000     0.999320000000     0.667610000000     0.478095   
C51      C      0.083950000000     0.998980000000     0.625140000000     0.478711   
C52      C      0.914140000000     0.999010000000     0.625010000000     0.478763   
C53      C      0.999270000000     0.497110000000     0.582550000000     0.478645   
C54      C      0.998580000000     0.499060000000     0.667620000000     0.478256   
C55      C      0.913970000000     0.498210000000     0.624910000000     0.478471   
C56      C      0.083780000000     0.498160000000     0.625260000000     0.478804   
C57      C      0.499210000000     0.998720000000     0.667610000000     0.478921   
C58      C      0.498890000000     0.999350000000     0.582550000000     0.479044   
C59      C      0.583960000000     0.999020000000     0.625010000000     0.478743   
C60      C      0.414150000000     0.999080000000     0.625150000000     0.478836   
C61      C      0.413980000000     0.499510000000     0.625270000000     0.478789   
C62      C      0.583790000000     0.499440000000     0.624910000000     0.478948   
C63      C      0.499210000000     0.498650000000     0.667620000000     0.478913   
C64      C      0.498480000000     0.500510000000     0.582560000000     0.479086   
C65      C      0.797990000000     0.459710000000     0.629980000000    -0.0894055  
C66      C      0.773910000000     0.498710000000     0.624800000000     0.0343605  
C67      C      0.798300000000     0.537480000000     0.619610000000    -0.0894443  
C68      C      0.845010000000     0.536860000000     0.620020000000     0.0740486  
C69      C      0.844710000000     0.459970000000     0.629610000000     0.073985   
C70      C      0.723860000000     0.498930000000     0.624800000000     0.0343361  
C71      C      0.699460000000     0.460150000000     0.619630000000    -0.0893863  
C72      C      0.652750000000     0.460780000000     0.620030000000     0.074029   
C73      C      0.653060000000     0.537680000000     0.629600000000     0.0740061  
C74      C      0.699780000000     0.537930000000     0.629970000000    -0.0894059  
C75      C      0.199770000000     0.459630000000     0.620330000000    -0.089334   
C76      C      0.223850000000     0.498710000000     0.625370000000     0.034375   
C77      C      0.199420000000     0.537540000000     0.630420000000    -0.0894661  
C78      C      0.152710000000     0.536890000000     0.629990000000     0.074101   
C79      C      0.153040000000     0.459850000000     0.620720000000     0.0740608  
C80      C      0.273920000000     0.498970000000     0.625370000000     0.034338   
C81      C      0.298350000000     0.460150000000     0.630440000000    -0.0894629  
C82      C      0.345050000000     0.460790000000     0.630010000000     0.0741598  
C83      C      0.344730000000     0.537830000000     0.620720000000     0.073959   
C84      C      0.298000000000     0.538050000000     0.620320000000    -0.0892839  
C85      C      0.798310000000     0.960100000000     0.630090000000    -0.0893951  
C86      C      0.774080000000     0.999010000000     0.624940000000     0.0342956  
C87      C      0.798330000000     0.037920000000     0.619810000000    -0.0893378  
C88      C      0.845040000000     0.037490000000     0.620230000000     0.0740971  
C89      C      0.845030000000     0.960540000000     0.629710000000     0.0739687  
C90      C      0.724020000000     0.999010000000     0.624940000000     0.0343257  
C91      C      0.699770000000     0.960100000000     0.619820000000    -0.0893971  
C92      C      0.653050000000     0.960540000000     0.620230000000     0.0740635  
C93      C      0.653070000000     0.037490000000     0.629700000000     0.0740533  
C94      C      0.699790000000     0.037920000000     0.630080000000    -0.0893541  
C95      C      0.199750000000     0.037930000000     0.630280000000    -0.0893099  
C96      C      0.224020000000     0.999010000000     0.625190000000     0.0342879  
C97      C      0.199790000000     0.960060000000     0.620100000000    -0.089341   
C98      C      0.153070000000     0.960480000000     0.620490000000     0.0740426  
C99      C      0.153030000000     0.037480000000     0.629860000000     0.0740618  
C100     C      0.274080000000     0.999040000000     0.625200000000     0.0343268  
C101     C      0.298310000000     0.037990000000     0.620110000000    -0.0893379  
C102     C      0.345030000000     0.037570000000     0.620510000000     0.0741116  
C103     C      0.345060000000     0.960580000000     0.629880000000     0.0740723  
C104     C      0.298350000000     0.960120000000     0.630290000000    -0.0894316  
C105     C      0.489720000000     0.540660000000     0.475010000000    -0.0890137  
C106     C      0.498970000000     0.501660000000     0.487320000000     0.034434   
C107     C      0.508810000000     0.462480000000     0.475320000000    -0.089623   
C108     C      0.508170000000     0.462590000000     0.451950000000     0.074623   
C109     C      0.490730000000     0.539880000000     0.451580000000     0.0739023  
C110     C      0.498350000000     0.501640000000     0.512400000000     0.034475   
C111     C      0.508760000000     0.540350000000     0.524670000000    -0.0892261  
C112     C      0.507900000000     0.539590000000     0.548090000000     0.0740019  
C113     C      0.488350000000     0.462800000000     0.547810000000     0.0742832  
C114     C      0.487550000000     0.462720000000     0.524420000000    -0.0894147  
C115     C      0.509010000000     0.038530000000     0.524560000000    -0.089305   
C116     C      0.498850000000     0.999620000000     0.512380000000     0.0343791  
C117     C      0.488580000000     0.960680000000     0.524500000000    -0.0893427  
C118     C      0.489360000000     0.961050000000     0.547900000000     0.0741871  
C119     C      0.508190000000     0.038010000000     0.547960000000     0.0741678  
C120     C      0.499010000000     0.999610000000     0.487310000000     0.0343898  
C121     C      0.488860000000     0.038500000000     0.475120000000    -0.0891901  
C122     C      0.489700000000     0.037970000000     0.451710000000     0.0740593  
C123     C      0.508530000000     0.961000000000     0.451810000000     0.0741524  
C124     C      0.509290000000     0.960660000000     0.475210000000    -0.0893741  
C125     C      0.010120000000     0.534860000000     0.524410000000    -0.0890582  
C126     C      0.999300000000     0.495930000000     0.512390000000     0.0341725  
C127     C      0.988920000000     0.457230000000     0.524670000000    -0.0892264  
C128     C      0.989820000000     0.458010000000     0.548090000000     0.0739499  
C129     C      0.009350000000     0.534790000000     0.547800000000     0.0744901  
C130     C      0.998640000000     0.495900000000     0.487310000000     0.0341765  
C131     C      0.988780000000     0.535080000000     0.475310000000    -0.0895719  
C132     C      0.989390000000     0.534970000000     0.451940000000     0.0744467  
C133     C      0.006830000000     0.457680000000     0.451570000000     0.074135   
C134     C      0.007870000000     0.456900000000     0.475000000000    -0.0887471  
C135     C      0.798190000000     0.459840000000     0.369580000000    -0.0894627  
C136     C      0.773820000000     0.498860000000     0.374390000000     0.0344346  
C137     C      0.798030000000     0.537980000000     0.379210000000    -0.0894053  
C138     C      0.844740000000     0.537640000000     0.378770000000     0.0743631  
C139     C      0.844890000000     0.460350000000     0.370050000000     0.0743859  
C140     C      0.723720000000     0.498760000000     0.374390000000     0.0344048  
C141     C      0.699350000000     0.537780000000     0.369580000000    -0.0894683  
C142     C      0.652650000000     0.537270000000     0.370070000000     0.074356   
C143     C      0.652800000000     0.459970000000     0.378790000000     0.0743519  
C144     C      0.699510000000     0.459640000000     0.379220000000    -0.0893349  
C145     C      0.199440000000     0.459960000000     0.369740000000    -0.089465   
C146     C      0.223740000000     0.498830000000     0.374870000000     0.0344184  
C147     C      0.199570000000     0.537810000000     0.379960000000    -0.0894286  
C148     C      0.152850000000     0.537490000000     0.379510000000     0.0741523  
C149     C      0.152730000000     0.460500000000     0.370100000000     0.0741548  
C150     C      0.273800000000     0.498710000000     0.374870000000     0.034432   
C151     C      0.297980000000     0.459720000000     0.379950000000    -0.0894346  
C152     C      0.344690000000     0.460050000000     0.379500000000     0.07416    
C153     C      0.344810000000     0.537040000000     0.370120000000     0.0742637  
C154     C      0.298100000000     0.537590000000     0.369750000000    -0.089591   
C155     C      0.988970000000     0.959500000000     0.524550000000    -0.0892706  
C156     C      0.999100000000     0.998400000000     0.512380000000     0.0341503  
C157     C      0.009400000000     0.037340000000     0.524490000000    -0.0890123  
C158     C      0.008660000000     0.036980000000     0.547880000000     0.0744208  
C159     C      0.989830000000     0.960010000000     0.547960000000     0.0739362  
C160     C      0.998900000000     0.998410000000     0.487300000000     0.0341279  
C161     C      0.009020000000     0.959520000000     0.475110000000    -0.0889693  
C162     C      0.008140000000     0.960050000000     0.451700000000     0.0742819  
C163     C      0.989310000000     0.037010000000     0.451800000000     0.0741729  
C164     C      0.988590000000     0.037360000000     0.475200000000    -0.0893158  
C165     C      0.699620000000     0.960020000000     0.369430000000    -0.0894564  
C166     C      0.723840000000     0.998980000000     0.374500000000     0.0343383  
C167     C      0.699560000000     0.037900000000     0.379580000000    -0.0893305  
C168     C      0.652850000000     0.037420000000     0.379190000000     0.0740663  
C169     C      0.652910000000     0.960410000000     0.369850000000     0.0741326  
C170     C      0.773910000000     0.999030000000     0.374500000000     0.0342637  
C171     C      0.798200000000     0.960110000000     0.379590000000    -0.0893488  
C172     C      0.844910000000     0.960600000000     0.379200000000     0.0740265  
C173     C      0.844850000000     0.037610000000     0.369850000000     0.0740839  
C174     C      0.798130000000     0.038000000000     0.369430000000    -0.0893558  
C175     C      0.199650000000     0.037980000000     0.379860000000    -0.0893098  
C176     C      0.223850000000     0.999040000000     0.374720000000     0.0343001  
C177     C      0.199570000000     0.960170000000     0.369560000000    -0.0894093  
C178     C      0.152850000000     0.960680000000     0.369940000000     0.0740652  
C179     C      0.152930000000     0.037610000000     0.379440000000     0.0740955  
C180     C      0.273900000000     0.998960000000     0.374730000000     0.0343271  
C181     C      0.298190000000     0.037830000000     0.369570000000    -0.0894274  
C182     C      0.344900000000     0.037320000000     0.369950000000     0.0740994  
C183     C      0.344820000000     0.960390000000     0.379450000000     0.0740688  
C184     C      0.298100000000     0.960010000000     0.379860000000    -0.089418   
C185     C      0.538580000000     0.488460000000     0.774050000000    -0.0909043  
C186     C      0.499170000000     0.496810000000     0.762190000000     0.0346266  
C187     C      0.459700000000     0.504870000000     0.774050000000    -0.0909163  
C188     C      0.460120000000     0.503960000000     0.797450000000     0.074063   
C189     C      0.538070000000     0.488890000000     0.797450000000     0.074077   
C190     C      0.499250000000     0.497270000000     0.737500000000     0.0346185  
C191     C      0.490620000000     0.536850000000     0.725840000000    -0.0908858  
C192     C      0.491310000000     0.536850000000     0.702430000000     0.0740049  
C193     C      0.507270000000     0.459080000000     0.702050000000     0.0740322  
C194     C      0.507930000000     0.458160000000     0.725450000000    -0.0908938  
C195     C      0.459880000000     0.005940000000     0.774050000000    -0.0908607  
C196     C      0.499320000000     0.997800000000     0.762190000000     0.034582   
C197     C      0.538710000000     0.989320000000     0.774040000000    -0.0908746  
C198     C      0.538200000000     0.989660000000     0.797440000000     0.0740016  
C199     C      0.460290000000     0.004930000000     0.797460000000     0.0740487  
C200     C      0.499350000000     0.998070000000     0.737490000000     0.0346317  
C201     C      0.508010000000     0.958850000000     0.725540000000    -0.0909466  
C202     C      0.507290000000     0.959530000000     0.702140000000     0.0740777  
C203     C      0.491330000000     0.037300000000     0.702330000000     0.0740203  
C204     C      0.490690000000     0.037530000000     0.725740000000    -0.0908412  
C205     C      0.461910000000     0.697260000000     0.879350000000    -0.0896292  
C206     C      0.501060000000     0.721310000000     0.874490000000     0.0344266  
C207     C      0.540120000000     0.696860000000     0.869850000000    -0.0892547  
C208     C      0.539460000000     0.650100000000     0.870350000000     0.0739759  
C209     C      0.462140000000     0.650580000000     0.879020000000     0.0743702  
C210     C      0.501020000000     0.771380000000     0.874260000000     0.0343089  
C211     C      0.462120000000     0.795420000000     0.868850000000    -0.0894417  
C212     C      0.462240000000     0.842110000000     0.869270000000     0.0741762  
C213     C      0.539000000000     0.842600000000     0.879110000000     0.0739617  
C214     C      0.539720000000     0.795860000000     0.879520000000    -0.0892454  
C215     C      0.458380000000     0.196800000000     0.879980000000    -0.0892826  
C216     C      0.497080000000     0.221290000000     0.874740000000     0.034353   
C217     C      0.536030000000     0.197280000000     0.869390000000    -0.0895024  
C218     C      0.535930000000     0.150590000000     0.869820000000     0.0742049  
C219     C      0.459130000000     0.150060000000     0.879570000000     0.0739816  
C220     C      0.496990000000     0.271370000000     0.874900000000     0.0344425  
C221     C      0.457940000000     0.295770000000     0.870190000000    -0.0892748  
C222     C      0.458590000000     0.342530000000     0.870580000000     0.0740204  
C223     C      0.535880000000     0.342140000000     0.879310000000     0.0743865  
C224     C      0.536120000000     0.295470000000     0.879750000000    -0.0896561  
C225     C      0.989820000000     0.539590000000     0.725440000000    -0.0908708  
C226     C      0.998600000000     0.500520000000     0.737500000000     0.0343602  
C227     C      0.007310000000     0.460950000000     0.725840000000    -0.0905675  
C228     C      0.006580000000     0.460910000000     0.702440000000     0.0742109  
C229     C      0.990460000000     0.538650000000     0.702040000000     0.0739099  
C230     C      0.998720000000     0.501010000000     0.762200000000     0.0343553  
C231     C      0.038090000000     0.492450000000     0.774050000000    -0.0905956  
C232     C      0.037710000000     0.493400000000     0.797460000000     0.0742037  
C233     C      0.959970000000     0.509480000000     0.797470000000     0.0739618  
C234     C      0.959440000000     0.509900000000     0.774070000000    -0.0908333  
C235     C      0.990060000000     0.039170000000     0.725540000000    -0.0907216  
C236     C      0.998770000000     0.999970000000     0.737490000000     0.034191   
C237     C      0.007510000000     0.960520000000     0.725730000000    -0.0904572  
C238     C      0.006860000000     0.960750000000     0.702320000000     0.0741051  
C239     C      0.990780000000     0.038500000000     0.702130000000     0.0739444  
C240     C      0.998790000000     0.000230000000     0.762190000000     0.0345449  
C241     C      0.038130000000     0.991660000000     0.774060000000    -0.0907033  
C242     C      0.037710000000     0.992670000000     0.797460000000     0.0742212  
C243     C      0.959970000000     0.008750000000     0.797440000000     0.0739681  
C244     C      0.959480000000     0.009110000000     0.774030000000    -0.09089    
C245     C      0.037910000000     0.800870000000     0.879940000000    -0.0890947  
C246     C      0.998980000000     0.776630000000     0.874840000000     0.0341071  
C247     C      0.960050000000     0.800870000000     0.869750000000    -0.0893889  
C248     C      0.960480000000     0.847580000000     0.870150000000     0.073978   
C249     C      0.037470000000     0.847600000000     0.879540000000     0.0742141  
C250     C      0.998980000000     0.726570000000     0.874810000000     0.0340623  
C251     C      0.037890000000     0.702340000000     0.869650000000    -0.0890956  
C252     C      0.037450000000     0.655620000000     0.870000000000     0.0741979  
C253     C      0.960500000000     0.655590000000     0.879460000000     0.0740269  
C254     C      0.960070000000     0.702300000000     0.879920000000    -0.0893495  
C255     C      0.960070000000     0.300900000000     0.869360000000    -0.0893626  
C256     C      0.998990000000     0.276620000000     0.874440000000     0.0340427  
C257     C      0.037930000000     0.300840000000     0.879560000000    -0.0890351  
C258     C      0.037510000000     0.347560000000     0.879210000000     0.0742153  
C259     C      0.960520000000     0.347610000000     0.869810000000     0.0739323  
C260     C      0.998960000000     0.226560000000     0.874400000000     0.0341192  
C261     C      0.960030000000     0.202330000000     0.879520000000    -0.0893453  
C262     C      0.960440000000     0.155610000000     0.879100000000     0.0739556  
C263     C      0.037400000000     0.155590000000     0.869650000000     0.0742685  
C264     C      0.037850000000     0.202310000000     0.869260000000    -0.089131   
C265     C      0.491590000000     0.454540000000     0.274440000000    -0.090866   
C266     C      0.498780000000     0.493740000000     0.262230000000     0.0346863  
C267     C      0.505850000000     0.533820000000     0.273700000000    -0.0910685  
C268     C      0.505140000000     0.534220000000     0.297100000000     0.0741332  
C269     C      0.492130000000     0.455910000000     0.297850000000     0.0740141  
C270     C      0.498900000000     0.492970000000     0.237550000000     0.0346397  
C271     C      0.459390000000     0.485140000000     0.225700000000    -0.0908994  
C272     C      0.459870000000     0.485850000000     0.202290000000     0.0740096  
C273     C      0.537960000000     0.500170000000     0.202310000000     0.074062   
C274     C      0.538430000000     0.500730000000     0.225710000000    -0.0909875  
C275     C      0.538020000000     0.486710000000     0.975150000000    -0.0893666  
C276     C      0.498890000000     0.496100000000     0.987320000000     0.0345244  
C277     C      0.459810000000     0.505670000000     0.975150000000    -0.0893117  
C278     C      0.460270000000     0.504870000000     0.951750000000     0.0744471  
C279     C      0.537620000000     0.487770000000     0.951750000000     0.0745308  
C280     C      0.498850000000     0.495890000000     0.012430000000     0.0345136  
C281     C      0.459730000000     0.486270000000     0.024560000000    -0.0892675  
C282     C      0.460130000000     0.486920000000     0.047970000000     0.0743591  
C283     C      0.537490000000     0.504030000000     0.048030000000     0.0744711  
C284     C      0.537930000000     0.505250000000     0.024640000000    -0.0893582  
C285     C      0.507310000000     0.036670000000     0.273880000000    -0.0908383  
C286     C      0.498640000000     0.997120000000     0.262200000000     0.0346294  
C287     C      0.489980000000     0.957990000000     0.274220000000    -0.090985   
C288     C      0.490670000000     0.958850000000     0.297620000000     0.0740375  
C289     C      0.506640000000     0.036620000000     0.297290000000     0.0740254  
C290     C      0.498640000000     0.996640000000     0.237500000000     0.0346308  
C291     C      0.538070000000     0.004650000000     0.225610000000    -0.0908754  
C292     C      0.537630000000     0.003370000000     0.202210000000     0.0740286  
C293     C      0.459730000000     0.988070000000     0.202280000000     0.074047   
C294     C      0.459240000000     0.988010000000     0.225690000000    -0.0909693  
C295     C      0.459810000000     0.004500000000     0.024540000000    -0.0892455  
C296     C      0.498730000000     0.994340000000     0.012380000000     0.0343306  
C297     C      0.537590000000     0.983870000000     0.024520000000    -0.0892461  
C298     C      0.537110000000     0.984420000000     0.047930000000     0.074073   
C299     C      0.460210000000     0.003500000000     0.047940000000     0.0741858  
C300     C      0.498810000000     0.994710000000     0.987310000000     0.0343764  
C301     C      0.459950000000     0.984590000000     0.975100000000    -0.0893011  
C302     C      0.460440000000     0.985760000000     0.951700000000     0.0741053  
C303     C      0.537340000000     0.004870000000     0.951830000000     0.074078   
C304     C      0.537720000000     0.005250000000     0.975230000000    -0.0892316  
C305     C      0.458090000000     0.793780000000     0.120440000000    -0.0892708  
C306     C      0.496810000000     0.769350000000     0.125730000000     0.0343421  
C307     C      0.535710000000     0.793440000000     0.131080000000    -0.0894966  
C308     C      0.535570000000     0.840130000000     0.130570000000     0.0741707  
C309     C      0.458790000000     0.840520000000     0.120770000000     0.0739609  
C310     C      0.496800000000     0.719270000000     0.125570000000     0.0343744  
C311     C      0.457760000000     0.694800000000     0.130220000000    -0.0892174  
C312     C      0.458430000000     0.648050000000     0.129740000000     0.0739615  
C313     C      0.535750000000     0.648540000000     0.121080000000     0.0743222  
C314     C      0.535970000000     0.695220000000     0.120730000000    -0.0895855  
C315     C      0.539330000000     0.194730000000     0.119470000000    -0.0893386  
C316     C      0.500650000000     0.219260000000     0.124710000000     0.0343621  
C317     C      0.461710000000     0.195280000000     0.130110000000    -0.0894545  
C318     C      0.461800000000     0.148590000000     0.129750000000     0.0741998  
C319     C      0.538580000000     0.148000000000     0.119950000000     0.0740137  
C320     C      0.500770000000     0.269320000000     0.124500000000     0.034394   
C321     C      0.539840000000     0.293710000000     0.129190000000    -0.0892617  
C322     C      0.539220000000     0.340460000000     0.128800000000     0.0739957  
C323     C      0.461910000000     0.340120000000     0.120100000000     0.0744107  
C324     C      0.461640000000     0.293450000000     0.119660000000    -0.0895957  
C325     C      0.006190000000     0.543060000000     0.274430000000    -0.0905589  
C326     C      0.998820000000     0.503900000000     0.262210000000     0.0344155  
C327     C      0.991550000000     0.463850000000     0.273680000000    -0.0909827  
C328     C      0.992250000000     0.463430000000     0.297070000000     0.0740277  
C329     C      0.005610000000     0.541680000000     0.297840000000     0.0741591  
C330     C      0.998720000000     0.504680000000     0.237520000000     0.0343096  
C331     C      0.959330000000     0.496320000000     0.225660000000    -0.0908841  
C332     C      0.959820000000     0.496950000000     0.202250000000     0.0739324  
C333     C      0.037680000000     0.512470000000     0.202270000000     0.0741077  
C334     C      0.038120000000     0.513160000000     0.225680000000    -0.0905088  
C335     C      0.038010000000     0.492070000000     0.024590000000    -0.0889679  
C336     C      0.999100000000     0.502130000000     0.012400000000     0.034122   
C337     C      0.960170000000     0.512480000000     0.024510000000    -0.0892739  
C338     C      0.960580000000     0.511960000000     0.047910000000     0.0740664  
C339     C      0.037550000000     0.493150000000     0.047990000000     0.0742484  
C340     C      0.999130000000     0.501870000000     0.987320000000     0.0342411  
C341     C      0.038050000000     0.511990000000     0.975160000000    -0.0890768  
C342     C      0.037600000000     0.511050000000     0.951760000000     0.0743425  
C343     C      0.960640000000     0.492230000000     0.951800000000     0.0740788  
C344     C      0.960210000000     0.491570000000     0.975200000000    -0.0893469  
C345     C      0.990340000000     0.961330000000     0.273880000000    -0.0908387  
C346     C      0.999070000000     0.000860000000     0.262190000000     0.0344116  
C347     C      0.007800000000     0.039980000000     0.274210000000    -0.0905947  
C348     C      0.007100000000     0.039130000000     0.297610000000     0.0742533  
C349     C      0.991020000000     0.961390000000     0.297290000000     0.0738713  
C350     C      0.999080000000     0.001330000000     0.237490000000     0.0343682  
C351     C      0.038390000000     0.010370000000     0.225680000000    -0.0905674  
C352     C      0.037920000000     0.010280000000     0.202270000000     0.0742586  
C353     C      0.960180000000     0.994180000000     0.202180000000     0.073878   
C354     C      0.959740000000     0.992900000000     0.225580000000    -0.0908295  
C355     C      0.038090000000     0.993450000000     0.024540000000    -0.0890896  
C356     C      0.999150000000     0.003510000000     0.012380000000     0.0342088  
C357     C      0.960250000000     0.013870000000     0.024510000000    -0.0892486  
C358     C      0.960700000000     0.013290000000     0.047910000000     0.0740299  
C359     C      0.037670000000     0.994470000000     0.047940000000     0.0743079  
C360     C      0.999110000000     0.003150000000     0.987300000000     0.0342254  
C361     C      0.038010000000     0.013160000000     0.975100000000    -0.0890367  
C362     C      0.037540000000     0.011980000000     0.951700000000     0.0743884  
C363     C      0.960580000000     0.993140000000     0.951810000000     0.0740301  
C364     C      0.960170000000     0.992730000000     0.975210000000    -0.0893591  
C365     C      0.038000000000     0.802820000000     0.129770000000    -0.0891216  
C366     C      0.999080000000     0.778610000000     0.124610000000     0.0340843  
C367     C      0.960180000000     0.802890000000     0.119500000000    -0.0893334  
C368     C      0.960620000000     0.849600000000     0.119960000000     0.0739575  
C369     C      0.037570000000     0.849530000000     0.129440000000     0.0742681  
C370     C      0.999040000000     0.728560000000     0.124610000000     0.03409    
C371     C      0.037960000000     0.704270000000     0.119530000000    -0.0890969  
C372     C      0.037500000000     0.657550000000     0.119980000000     0.0742777  
C373     C      0.960510000000     0.657640000000     0.129370000000     0.0739895  
C374     C      0.960100000000     0.704350000000     0.129720000000    -0.0893798  
C375     C      0.960010000000     0.302820000000     0.120440000000    -0.0893301  
C376     C      0.998950000000     0.278620000000     0.125560000000     0.034089   
C377     C      0.037840000000     0.302910000000     0.130680000000    -0.0891269  
C378     C      0.037370000000     0.349620000000     0.130240000000     0.0742068  
C379     C      0.960410000000     0.349550000000     0.120810000000     0.0739867  
C380     C      0.999020000000     0.228550000000     0.125540000000     0.0340607  
C381     C      0.960120000000     0.204240000000     0.130610000000    -0.0893632  
C382     C      0.960590000000     0.157530000000     0.130150000000     0.0739242  
C383     C      0.037580000000     0.157640000000     0.120760000000     0.0741922  
C384     C      0.037980000000     0.204360000000     0.120420000000    -0.0890586  
H1       H      0.781690000000     0.568260000000     0.614940000000     0.0489028  
H2       H      0.862330000000     0.567660000000     0.615910000000     0.0218934  
H3       H      0.861790000000     0.429040000000     0.633740000000     0.0218238  
H4       H      0.781110000000     0.429070000000     0.634650000000     0.048792   
H5       H      0.716070000000     0.429360000000     0.614960000000     0.0488736  
H6       H      0.635430000000     0.429970000000     0.615930000000     0.0219099  
H7       H      0.635980000000     0.568620000000     0.633720000000     0.0218273  
H8       H      0.716650000000     0.568580000000     0.634630000000     0.048794   
H9       H      0.215970000000     0.568390000000     0.635010000000     0.0488107  
H10      H      0.135380000000     0.567740000000     0.633990000000     0.0218939  
H11      H      0.135960000000     0.428860000000     0.616710000000     0.0218301  
H12      H      0.216620000000     0.428930000000     0.615750000000     0.0488692  
H13      H      0.281780000000     0.429300000000     0.635030000000     0.0487888  
H14      H      0.362380000000     0.429940000000     0.634020000000     0.0218478  
H15      H      0.361810000000     0.568820000000     0.616710000000     0.0218159  
H16      H      0.281150000000     0.568750000000     0.615740000000     0.0488504  
H17      H      0.781600000000     0.068660000000     0.615170000000     0.0488612  
H18      H      0.862250000000     0.068380000000     0.616160000000     0.0218362  
H19      H      0.862220000000     0.929660000000     0.633790000000     0.0218368  
H20      H      0.781580000000     0.929360000000     0.634720000000     0.0487795  
H21      H      0.716490000000     0.929360000000     0.615180000000     0.0488762  
H22      H      0.635840000000     0.929650000000     0.616160000000     0.0218515  
H23      H      0.635880000000     0.068380000000     0.633790000000     0.0218425  
H24      H      0.716520000000     0.068660000000     0.634720000000     0.0487705  
H25      H      0.216520000000     0.929310000000     0.615490000000     0.0488745  
H26      H      0.135880000000     0.929570000000     0.616450000000     0.021876   
H27      H      0.135810000000     0.068380000000     0.633900000000     0.0218706  
H28      H      0.216440000000     0.068700000000     0.634900000000     0.0487752  
H29      H      0.281580000000     0.068740000000     0.615500000000     0.0488815  
H30      H      0.362220000000     0.068480000000     0.616460000000     0.0218362  
H31      H      0.362280000000     0.929670000000     0.633910000000     0.0218391  
H32      H      0.281650000000     0.929350000000     0.634900000000     0.048787   
H33      H      0.517550000000     0.431700000000     0.483800000000     0.0489151  
H34      H      0.515860000000     0.431400000000     0.443500000000     0.0217525  
H35      H      0.483260000000     0.570740000000     0.442800000000     0.0216867  
H36      H      0.480990000000     0.571680000000     0.483270000000     0.0488258  
H37      H      0.518310000000     0.571110000000     0.516400000000     0.0489     
H38      H      0.516270000000     0.570270000000     0.556820000000     0.0218783  
H39      H      0.479910000000     0.431870000000     0.556310000000     0.0218256  
H40      H      0.477940000000     0.432180000000     0.515960000000     0.0489228  
H41      H      0.479330000000     0.929960000000     0.516100000000     0.0489237  
H42      H      0.481240000000     0.930120000000     0.556480000000     0.021886   
H43      H      0.516290000000     0.068880000000     0.556610000000     0.0218729  
H44      H      0.518240000000     0.069290000000     0.516200000000     0.0489065  
H45      H      0.479620000000     0.069280000000     0.483470000000     0.0488574  
H46      H      0.481610000000     0.068820000000     0.443050000000     0.021863   
H47      H      0.516660000000     0.930060000000     0.443230000000     0.0219472  
H48      H      0.518540000000     0.929950000000     0.483610000000     0.0489465  
H49      H      0.979380000000     0.426460000000     0.516410000000     0.0488343  
H50      H      0.981460000000     0.427320000000     0.556840000000     0.0218809  
H51      H      0.017800000000     0.565730000000     0.556290000000     0.0218501  
H52      H      0.019710000000     0.565400000000     0.515940000000     0.0489362  
H53      H      0.980050000000     0.565860000000     0.483790000000     0.0488347  
H54      H      0.981700000000     0.566160000000     0.443490000000     0.021761   
H55      H      0.014280000000     0.426820000000     0.442780000000     0.021751   
H56      H      0.016600000000     0.425880000000     0.483250000000     0.0488879  
H57      H      0.781340000000     0.568850000000     0.383640000000     0.0487943  
H58      H      0.861910000000     0.568680000000     0.382590000000     0.0214555  
H59      H      0.862170000000     0.429360000000     0.366250000000     0.0214372  
H60      H      0.781610000000     0.428920000000     0.365130000000     0.0487132  
H61      H      0.715920000000     0.568700000000     0.365140000000     0.0487334  
H62      H      0.635360000000     0.568250000000     0.366270000000     0.0214493  
H63      H      0.635640000000     0.428930000000     0.382610000000     0.0214692  
H64      H      0.716220000000     0.428770000000     0.383650000000     0.0487666  
H65      H      0.216340000000     0.568520000000     0.384590000000     0.048912   
H66      H      0.135690000000     0.568420000000     0.383540000000     0.0217835  
H67      H      0.135480000000     0.429640000000     0.366030000000     0.0218379  
H68      H      0.216100000000     0.429170000000     0.365130000000     0.0488156  
H69      H      0.281200000000     0.429000000000     0.384570000000     0.0488937  
H70      H      0.361860000000     0.429120000000     0.383530000000     0.021752   
H71      H      0.362050000000     0.567920000000     0.366060000000     0.0217833  
H72      H      0.281440000000     0.568370000000     0.365150000000     0.0488669  
H73      H      0.018630000000     0.068060000000     0.516080000000     0.0489545  
H74      H      0.016790000000     0.067910000000     0.556470000000     0.0219339  
H75      H      0.981750000000     0.929150000000     0.556610000000     0.0218725  
H76      H      0.979720000000     0.928730000000     0.516200000000     0.0488056  
H77      H      0.018280000000     0.928740000000     0.483450000000     0.0489068  
H78      H      0.016220000000     0.929190000000     0.443040000000     0.0218588  
H79      H      0.981160000000     0.067950000000     0.443230000000     0.0218867  
H80      H      0.979360000000     0.068070000000     0.483610000000     0.0488632  
H81      H      0.716250000000     0.068680000000     0.384180000000     0.0488587  
H82      H      0.635620000000     0.068310000000     0.383220000000     0.0218523  
H83      H      0.635730000000     0.929470000000     0.365830000000     0.0217914  
H84      H      0.716370000000     0.929270000000     0.364830000000     0.048777   
H85      H      0.781510000000     0.929330000000     0.384190000000     0.048844   
H86      H      0.862140000000     0.929700000000     0.383230000000     0.0218367  
H87      H      0.862030000000     0.068530000000     0.365830000000     0.0217926  
H88      H      0.781390000000     0.068740000000     0.364820000000     0.0487773  
H89      H      0.216260000000     0.929410000000     0.364920000000     0.0488038  
H90      H      0.135630000000     0.929820000000     0.365840000000     0.0218879  
H91      H      0.135760000000     0.068510000000     0.383510000000     0.0218715  
H92      H      0.216420000000     0.068690000000     0.384510000000     0.0488835  
H93      H      0.281500000000     0.068580000000     0.364930000000     0.0488263  
H94      H      0.362130000000     0.068180000000     0.365850000000     0.021871   
H95      H      0.362000000000     0.929480000000     0.383530000000     0.0218572  
H96      H      0.281330000000     0.929310000000     0.384510000000     0.0489117  
H97      H      0.428640000000     0.511370000000     0.765270000000     0.0510642  
H98      H      0.428770000000     0.510160000000     0.806050000000     0.0220517  
H99      H      0.569380000000     0.482550000000     0.806060000000     0.0220406  
H100     H      0.569680000000     0.482180000000     0.765260000000     0.0510394  
H101     H      0.483860000000     0.567680000000     0.734770000000     0.051081   
H102     H      0.484680000000     0.568270000000     0.693990000000     0.0220999  
H103     H      0.513900000000     0.428000000000     0.693290000000     0.0220685  
H104     H      0.514670000000     0.426990000000     0.734090000000     0.0510287  
H105     H      0.569800000000     0.982960000000     0.765250000000     0.0510091  
H106     H      0.569490000000     0.983170000000     0.806040000000     0.0220787  
H107     H      0.428960000000     0.011160000000     0.806060000000     0.0220986  
H108     H      0.428840000000     0.012530000000     0.765280000000     0.0510846  
H109     H      0.514760000000     0.927760000000     0.734250000000     0.0510534  
H110     H      0.513910000000     0.928360000000     0.693460000000     0.0220775  
H111     H      0.484680000000     0.068630000000     0.693800000000     0.0220827  
H112     H      0.483940000000     0.068450000000     0.734600000000     0.0510433  
H113     H      0.571110000000     0.713420000000     0.865500000000     0.0487557  
H114     H      0.570400000000     0.632670000000     0.866630000000     0.0216778  
H115     H      0.431000000000     0.633600000000     0.882830000000     0.0217034  
H116     H      0.431070000000     0.714100000000     0.883690000000     0.0488797  
H117     H      0.431580000000     0.778550000000     0.864010000000     0.0487624  
H118     H      0.431330000000     0.859110000000     0.865030000000     0.021798   
H119     H      0.569690000000     0.860010000000     0.883330000000     0.0218477  
H120     H      0.570460000000     0.779320000000     0.884320000000     0.0488522  
H121     H      0.566580000000     0.214150000000     0.864580000000     0.0487923  
H122     H      0.566870000000     0.133610000000     0.865610000000     0.0218053  
H123     H      0.428430000000     0.132620000000     0.883750000000     0.021845   
H124     H      0.427610000000     0.213330000000     0.884740000000     0.0488671  
H125     H      0.426980000000     0.279150000000     0.865840000000     0.0487729  
H126     H      0.427660000000     0.359920000000     0.866800000000     0.0216782  
H127     H      0.567010000000     0.359170000000     0.883110000000     0.021711   
H128     H      0.566950000000     0.278690000000     0.884160000000     0.0488879  
H129     H      0.014140000000     0.430140000000     0.734780000000     0.0510527  
H130     H      0.013270000000     0.429490000000     0.694000000000     0.0221245  
H131     H      0.983760000000     0.569700000000     0.693270000000     0.0220547  
H132     H      0.983030000000     0.570760000000     0.734060000000     0.0509666  
H133     H      0.069050000000     0.485530000000     0.765270000000     0.0510307  
H134     H      0.068980000000     0.486800000000     0.806050000000     0.0220701  
H135     H      0.928750000000     0.516250000000     0.806080000000     0.0220751  
H136     H      0.928410000000     0.516580000000     0.765290000000     0.050976   
H137     H      0.014300000000     0.929610000000     0.734590000000     0.0510006  
H138     H      0.013560000000     0.929430000000     0.693790000000     0.0221225  
H139     H      0.984100000000     0.069660000000     0.693460000000     0.0220595  
H140     H      0.983260000000     0.070260000000     0.734240000000     0.0509362  
H141     H      0.069120000000     0.984760000000     0.765290000000     0.0510271  
H142     H      0.068970000000     0.986100000000     0.806080000000     0.0220784  
H143     H      0.928740000000     0.015550000000     0.806030000000     0.0220769  
H144     H      0.928470000000     0.015800000000     0.765240000000     0.0510156  
H145     H      0.929300000000     0.784140000000     0.865130000000     0.0487679  
H146     H      0.929580000000     0.864780000000     0.866090000000     0.0218569  
H147     H      0.068370000000     0.864810000000     0.883580000000     0.0218309  
H148     H      0.068660000000     0.784150000000     0.884550000000     0.0488527  
H149     H      0.068630000000     0.719080000000     0.865030000000     0.0487514  
H150     H      0.068340000000     0.638430000000     0.865910000000     0.0218406  
H151     H      0.929610000000     0.638370000000     0.883520000000     0.0218706  
H152     H      0.929330000000     0.719010000000     0.884570000000     0.0488621  
H153     H      0.068680000000     0.284080000000     0.884150000000     0.0488528  
H154     H      0.068410000000     0.364740000000     0.883270000000     0.0218529  
H155     H      0.929620000000     0.364840000000     0.865780000000     0.0218372  
H156     H      0.929310000000     0.284210000000     0.864730000000     0.0487439  
H157     H      0.929300000000     0.219060000000     0.884160000000     0.0488503  
H158     H      0.929550000000     0.138420000000     0.883180000000     0.0218637  
H159     H      0.068280000000     0.138380000000     0.865580000000     0.0218366  
H160     H      0.068600000000     0.219020000000     0.864620000000     0.0487726  
H161     H      0.511440000000     0.564720000000     0.264630000000     0.0511856  
H162     H      0.510560000000     0.566040000000     0.305380000000     0.0220198  
H163     H      0.486670000000     0.424770000000     0.306760000000     0.0219928  
H164     H      0.486060000000     0.422980000000     0.265940000000     0.0510965  
H165     H      0.428240000000     0.479140000000     0.234490000000     0.0511368  
H166     H      0.428480000000     0.479940000000     0.193680000000     0.0220725  
H167     H      0.569350000000     0.506200000000     0.193710000000     0.0220898  
H168     H      0.569550000000     0.506890000000     0.234500000000     0.0511403  
H169     H      0.428870000000     0.514390000000     0.983480000000     0.0488056  
H170     H      0.429240000000     0.512390000000     0.943120000000     0.0214679  
H171     H      0.568670000000     0.480320000000     0.943130000000     0.0214382  
H172     H      0.568930000000     0.477880000000     0.983470000000     0.048834   
H173     H      0.428810000000     0.477590000000     0.016210000000     0.0488143  
H174     H      0.429090000000     0.479320000000     0.056570000000     0.0215006  
H175     H      0.568520000000     0.511410000000     0.056690000000     0.021477   
H176     H      0.568860000000     0.514130000000     0.016350000000     0.0488204  
H177     H      0.483220000000     0.926840000000     0.265580000000     0.0510738  
H178     H      0.484040000000     0.927740000000     0.306350000000     0.0220854  
H179     H      0.513290000000     0.068010000000     0.305770000000     0.0220775  
H180     H      0.514050000000     0.067520000000     0.264960000000     0.0510596  
H181     H      0.569130000000     0.011340000000     0.234350000000     0.0510718  
H182     H      0.568950000000     0.009510000000     0.193570000000     0.0221144  
H183     H      0.428430000000     0.981480000000     0.193720000000     0.0220643  
H184     H      0.428180000000     0.981730000000     0.234500000000     0.0510748  
H185     H      0.568330000000     0.974660000000     0.016120000000     0.0488714  
H186     H      0.567970000000     0.976150000000     0.056540000000     0.0219008  
H187     H      0.429320000000     0.011640000000     0.056550000000     0.0219082  
H188     H      0.429110000000     0.013900000000     0.016160000000     0.0489169  
H189     H      0.429210000000     0.975140000000     0.983430000000     0.0488963  
H190     H      0.429590000000     0.977700000000     0.943040000000     0.021906   
H191     H      0.568230000000     0.013220000000     0.943260000000     0.0219376  
H192     H      0.568420000000     0.014410000000     0.983680000000     0.0489026  
H193     H      0.566270000000     0.776630000000     0.135920000000     0.0487827  
H194     H      0.566490000000     0.857170000000     0.134760000000     0.0217891  
H195     H      0.428090000000     0.857900000000     0.116540000000     0.0218567  
H196     H      0.427350000000     0.777190000000     0.115690000000     0.0488697  
H197     H      0.426760000000     0.711370000000     0.134560000000     0.0487206  
H198     H      0.427500000000     0.630610000000     0.133460000000     0.0216715  
H199     H      0.566900000000     0.631560000000     0.117270000000     0.0217126  
H200     H      0.566810000000     0.712050000000     0.116380000000     0.048854   
H201     H      0.431170000000     0.212190000000     0.134920000000     0.0487749  
H202     H      0.430870000000     0.131640000000     0.134010000000     0.0218011  
H203     H      0.569260000000     0.130530000000     0.115770000000     0.0218377  
H204     H      0.570080000000     0.211230000000     0.114670000000     0.0488902  
H205     H      0.570800000000     0.277080000000     0.133520000000     0.0487777  
H206     H      0.570160000000     0.357830000000     0.132570000000     0.0217029  
H207     H      0.430790000000     0.357170000000     0.116320000000     0.0217089  
H208     H      0.430790000000     0.276670000000     0.115270000000     0.0488707  
H209     H      0.985820000000     0.432970000000     0.264600000000     0.0510581  
H210     H      0.986680000000     0.431630000000     0.305350000000     0.0220045  
H211     H      0.011210000000     0.572780000000     0.306760000000     0.0220341  
H212     H      0.011880000000     0.574590000000     0.265940000000     0.0511021  
H213     H      0.928300000000     0.489660000000     0.234430000000     0.0510799  
H214     H      0.928540000000     0.490450000000     0.193650000000     0.022096   
H215     H      0.068980000000     0.518880000000     0.193670000000     0.0221137  
H216     H      0.069170000000     0.519630000000     0.234480000000     0.051059   
H217     H      0.929430000000     0.521620000000     0.016100000000     0.0488785  
H218     H      0.929670000000     0.520170000000     0.056490000000     0.021893   
H219     H      0.068430000000     0.485160000000     0.056640000000     0.0218859  
H220     H      0.068770000000     0.482740000000     0.016250000000     0.0488619  
H221     H      0.068800000000     0.521280000000     0.983520000000     0.0488984  
H222     H      0.068500000000     0.519100000000     0.943130000000     0.0218768  
H223     H      0.929740000000     0.484080000000     0.943190000000     0.0218924  
H224     H      0.929460000000     0.482390000000     0.983590000000     0.0488903  
H225     H      0.014600000000     0.071130000000     0.265560000000     0.05102    
H226     H      0.013790000000     0.070230000000     0.306340000000     0.0221174  
H227     H      0.984320000000     0.930010000000     0.305760000000     0.0220519  
H228     H      0.983550000000     0.930480000000     0.264960000000     0.0509567  
H229     H      0.069390000000     0.016970000000     0.234500000000     0.0509985  
H230     H      0.069160000000     0.017180000000     0.193710000000     0.0220679  
H231     H      0.928940000000     0.987700000000     0.193540000000     0.0220807  
H232     H      0.928750000000     0.985900000000     0.234330000000     0.050978   
H233     H      0.929490000000     0.023010000000     0.016110000000     0.0488678  
H234     H      0.929810000000     0.021460000000     0.056520000000     0.0219006  
H235     H      0.068570000000     0.986440000000     0.056570000000     0.0218767  
H236     H      0.068830000000     0.984130000000     0.016180000000     0.0488798  
H237     H      0.068770000000     0.022540000000     0.983430000000     0.0488888  
H238     H      0.068430000000     0.019950000000     0.943050000000     0.0218741  
H239     H      0.929670000000     0.984900000000     0.943230000000     0.0218969  
H240     H      0.929440000000     0.983630000000     0.983640000000     0.0488792  
H241     H      0.929440000000     0.786200000000     0.114830000000     0.0488268  
H242     H      0.929740000000     0.866840000000     0.115910000000     0.021835   
H243     H      0.068460000000     0.866700000000     0.133540000000     0.0218287  
H244     H      0.068730000000     0.786060000000     0.134400000000     0.0487716  
H245     H      0.068720000000     0.720960000000     0.114910000000     0.0488848  
H246     H      0.068400000000     0.640310000000     0.115960000000     0.0218677  
H247     H      0.929600000000     0.640470000000     0.133440000000     0.0218513  
H248     H      0.929350000000     0.721100000000     0.134320000000     0.0487558  
H249     H      0.068600000000     0.286220000000     0.135320000000     0.048736   
H250     H      0.068250000000     0.366860000000     0.134290000000     0.0218179  
H251     H      0.929510000000     0.366720000000     0.116720000000     0.0218611  
H252     H      0.929280000000     0.286070000000     0.115810000000     0.0488553  
H253     H      0.929350000000     0.220910000000     0.135240000000     0.0487676  
H254     H      0.929700000000     0.140280000000     0.134170000000     0.021872   
H255     H      0.068500000000     0.140480000000     0.116690000000     0.0218722  
H256     H      0.068720000000     0.221130000000     0.115830000000     0.0488426  
N1       N      0.868070000000     0.498330000000     0.624840000000    -0.207388   
N2       N      0.629690000000     0.499320000000     0.624840000000    -0.207458   
N3       N      0.129670000000     0.498270000000     0.625330000000    -0.207486   
N4       N      0.368090000000     0.499400000000     0.625350000000    -0.207493   
N5       N      0.868240000000     0.999020000000     0.624980000000    -0.207457   
N6       N      0.629860000000     0.999010000000     0.624980000000    -0.207475   
N7       N      0.129850000000     0.998970000000     0.625170000000    -0.207442   
N8       N      0.368250000000     0.999080000000     0.625180000000    -0.207496   
N9       N      0.499370000000     0.500990000000     0.440140000000    -0.207631   
N10      N      0.498240000000     0.500980000000     0.559570000000    -0.207477   
N11      N      0.498810000000     0.999480000000     0.559560000000    -0.207516   
N12      N      0.499090000000     0.999420000000     0.440130000000    -0.207483   
N13      N      0.999480000000     0.496620000000     0.559570000000    -0.207682   
N14      N      0.998190000000     0.496560000000     0.440130000000    -0.207617   
N15      N      0.868010000000     0.499030000000     0.374430000000    -0.207764   
N16      N      0.629540000000     0.498580000000     0.374450000000    -0.207695   
N17      N      0.129590000000     0.499050000000     0.374780000000    -0.207588   
N18      N      0.367950000000     0.498500000000     0.374790000000    -0.207628   
N19      N      0.999230000000     0.998550000000     0.559550000000    -0.207561   
N20      N      0.998730000000     0.998590000000     0.440130000000    -0.207598   
N21      N      0.629670000000     0.998880000000     0.374530000000    -0.207577   
N22      N      0.868080000000     0.999130000000     0.374530000000    -0.207469   
N23      N      0.129690000000     0.999180000000     0.374670000000    -0.207469   
N24      N      0.368070000000     0.998820000000     0.374690000000    -0.207483   
N25      N      0.499080000000     0.496350000000     0.809080000000    -0.207431   
N26      N      0.499280000000     0.498190000000     0.690610000000    -0.20746    
N27      N      0.499220000000     0.997120000000     0.809080000000    -0.207476   
N28      N      0.499280000000     0.998520000000     0.690610000000    -0.207415   
N29      N      0.500650000000     0.627140000000     0.874670000000    -0.207591   
N30      N      0.500430000000     0.865560000000     0.874250000000    -0.207567   
N31      N      0.497720000000     0.127120000000     0.874730000000    -0.207531   
N32      N      0.497380000000     0.365540000000     0.874870000000    -0.207626   
N33      N      0.998520000000     0.499540000000     0.690610000000    -0.207494   
N34      N      0.998870000000     0.501530000000     0.809090000000    -0.207456   
N35      N      0.998840000000     0.999520000000     0.690600000000    -0.207507   
N36      N      0.998860000000     0.000870000000     0.809080000000    -0.207548   
N37      N      0.998980000000     0.870790000000     0.874830000000    -0.207537   
N38      N      0.998970000000     0.632400000000     0.874710000000    -0.207558   
N39      N      0.999020000000     0.370790000000     0.874540000000    -0.207564   
N40      N      0.998920000000     0.132400000000     0.874380000000    -0.207588   
N41      N      0.498600000000     0.495510000000     0.309100000000    -0.207492   
N42      N      0.498900000000     0.493160000000     0.190670000000    -0.207386   
N43      N      0.498960000000     0.496360000000     0.940140000000    -0.207638   
N44      N      0.498810000000     0.495310000000     0.059620000000    -0.207664   
N45      N      0.498680000000     0.997930000000     0.309080000000    -0.207373   
N46      N      0.498690000000     0.995420000000     0.190620000000    -0.207359   
N47      N      0.498650000000     0.993900000000     0.059560000000    -0.207494   
N48      N      0.498910000000     0.995510000000     0.940140000000    -0.207333   
N49      N      0.497360000000     0.863530000000     0.125570000000    -0.207528   
N50      N      0.497240000000     0.625090000000     0.125420000000    -0.207521   
N51      N      0.500000000000     0.125090000000     0.124850000000    -0.207565   
N52      N      0.500420000000     0.363490000000     0.124540000000    -0.207592   
N53      N      0.998960000000     0.502100000000     0.309080000000    -0.207416   
N54      N      0.998780000000     0.504590000000     0.190630000000    -0.207517   
N55      N      0.999050000000     0.502700000000     0.059580000000    -0.207534   
N56      N      0.999110000000     0.501590000000     0.940150000000    -0.207575   
N57      N      0.999040000000     0.000070000000     0.309080000000    -0.207505   
N58      N      0.999050000000     0.002520000000     0.190600000000    -0.207539   
N59      N      0.999190000000     0.003950000000     0.059550000000    -0.207538   
N60      N      0.999050000000     0.002370000000     0.940130000000    -0.207566   
N61      N      0.999100000000     0.872770000000     0.124740000000    -0.207617   
N62      N      0.999000000000     0.634390000000     0.124710000000    -0.207619   
N63      N      0.998880000000     0.372790000000     0.125490000000    -0.207557   
N64      N      0.999100000000     0.134370000000     0.125410000000    -0.207505   
O1       O      0.036350000000     0.940070000000     0.126020000000    -0.556982   
O2       O      0.036360000000     0.067050000000     0.124150000000    -0.556835   
O3       O      0.036310000000     0.005340000000     0.156890000000    -0.557073   
O4       O      0.036390000000     0.001670000000     0.093280000000    -0.556788   
O5       O      0.961900000000     0.006120000000     0.093270000000    -0.557041   
O6       O      0.961820000000     0.001040000000     0.156850000000    -0.55714    
O7       O      0.961860000000     0.067040000000     0.126340000000    -0.557128   
O8       O      0.961860000000     0.940110000000     0.123780000000    -0.557154   
O9       O      0.961760000000     0.505380000000     0.093280000000    -0.557231   
O10      O      0.961630000000     0.501970000000     0.156880000000    -0.557277   
O11      O      0.961730000000     0.567110000000     0.125960000000    -0.55736    
O12      O      0.961660000000     0.440130000000     0.124200000000    -0.556955   
O13      O      0.036150000000     0.440110000000     0.126440000000    -0.556977   
O14      O      0.036230000000     0.567040000000     0.123800000000    -0.55675    
O15      O      0.036130000000     0.506170000000     0.156910000000    -0.556731   
O16      O      0.036250000000     0.500920000000     0.093330000000    -0.556821   
O17      O      0.460750000000     0.931190000000     0.124160000000    -0.5571     
O18      O      0.462120000000     0.058160000000     0.126040000000    -0.557295   
O19      O      0.461440000000     0.996570000000     0.093290000000    -0.557202   
O20      O      0.461430000000     0.992900000000     0.156900000000    -0.557167   
O21      O      0.535960000000     0.996530000000     0.156880000000    -0.556943   
O22      O      0.535880000000     0.991360000000     0.093290000000    -0.557001   
O23      O      0.536610000000     0.057410000000     0.123780000000    -0.556928   
O24      O      0.535230000000     0.930500000000     0.126410000000    -0.557385   
O25      O      0.536140000000     0.494850000000     0.093310000000    -0.557701   
O26      O      0.536130000000     0.495420000000     0.156940000000    -0.557487   
O27      O      0.537000000000     0.431280000000     0.125430000000    -0.556546   
O28      O      0.535260000000     0.558290000000     0.124800000000    -0.55866    
O29      O      0.460670000000     0.557270000000     0.125940000000    -0.556378   
O30      O      0.462410000000     0.430290000000     0.124300000000    -0.558646   
O31      O      0.461580000000     0.492080000000     0.156940000000    -0.557353   
O32      O      0.461490000000     0.494730000000     0.093320000000    -0.557549   
O33      O      0.036240000000     0.004140000000     0.906390000000    -0.557098   
O34      O      0.036150000000     0.999150000000     0.842800000000    -0.556798   
O35      O      0.036170000000     0.065080000000     0.873340000000    -0.55693    
O36      O      0.036220000000     0.938140000000     0.875850000000    -0.556818   
O37      O      0.961720000000     0.938100000000     0.873660000000    -0.557202   
O38      O      0.961690000000     0.065060000000     0.875590000000    -0.557223   
O39      O      0.961660000000     0.003430000000     0.842820000000    -0.556966   
O40      O      0.961750000000     0.999670000000     0.906430000000    -0.557178   
O41      O      0.036300000000     0.503790000000     0.906410000000    -0.556955   
O42      O      0.036180000000     0.499490000000     0.842810000000    -0.556972   
O43      O      0.036230000000     0.565090000000     0.873530000000    -0.557006   
O44      O      0.036260000000     0.438130000000     0.875690000000    -0.556917   
O45      O      0.961770000000     0.438110000000     0.873510000000    -0.55726    
O46      O      0.961740000000     0.565060000000     0.875780000000    -0.556981   
O47      O      0.961690000000     0.503780000000     0.842840000000    -0.556852   
O48      O      0.961810000000     0.499320000000     0.906440000000    -0.557092   
O49      O      0.537020000000     0.933230000000     0.875590000000    -0.557005   
O50      O      0.535610000000     0.060190000000     0.873650000000    -0.55753    
O51      O      0.536210000000     0.998620000000     0.906440000000    -0.557019   
O52      O      0.536410000000     0.994870000000     0.842830000000    -0.557253   
O53      O      0.461880000000     0.998470000000     0.842790000000    -0.557123   
O54      O      0.461770000000     0.993390000000     0.906380000000    -0.556894   
O55      O      0.461120000000     0.059430000000     0.875860000000    -0.556846   
O56      O      0.462540000000     0.932500000000     0.873290000000    -0.557245   
O57      O      0.462610000000     0.560350000000     0.875170000000    -0.558807   
O58      O      0.460830000000     0.433360000000     0.874080000000    -0.556504   
O59      O      0.461660000000     0.496450000000     0.906420000000    -0.557657   
O60      O      0.461770000000     0.498000000000     0.842800000000    -0.557709   
O61      O      0.536310000000     0.494560000000     0.842820000000    -0.557687   
O62      O      0.536300000000     0.496340000000     0.906440000000    -0.557647   
O63      O      0.535410000000     0.432330000000     0.875250000000    -0.55884    
O64      O      0.537200000000     0.559310000000     0.874030000000    -0.556462   
O65      O      0.001100000000     0.036840000000     0.342930000000    -0.557154   
O66      O      0.996570000000     0.036120000000     0.406490000000    -0.557474   
O67      O      0.062360000000     0.036450000000     0.375850000000    -0.556576   
O68      O      0.935380000000     0.036440000000     0.373560000000    -0.557142   
O69      O      0.935430000000     0.961920000000     0.375570000000    -0.557073   
O70      O      0.062360000000     0.961980000000     0.373440000000    -0.557128   
O71      O      0.001040000000     0.961630000000     0.406310000000    -0.556158   
O72      O      0.996820000000     0.962350000000     0.342690000000    -0.556787   
O73      O      0.935260000000     0.536420000000     0.374710000000    -0.557708   
O74      O      0.062280000000     0.536380000000     0.375760000000    -0.557139   
O75      O      0.000010000000     0.537890000000     0.343260000000    -0.556633   
O76      O      0.997410000000     0.535010000000     0.406820000000    -0.559544   
O77      O      0.999740000000     0.460430000000     0.406010000000    -0.555641   
O78      O      0.997930000000     0.463320000000     0.342360000000    -0.557793   
O79      O      0.062280000000     0.461870000000     0.373660000000    -0.557731   
O80      O      0.935320000000     0.461780000000     0.374310000000    -0.557602   
O81      O      0.500910000000     0.035650000000     0.342700000000    -0.556769   
O82      O      0.496740000000     0.036380000000     0.406320000000    -0.556811   
O83      O      0.562320000000     0.036080000000     0.375570000000    -0.557303   
O84      O      0.435390000000     0.036020000000     0.373450000000    -0.557293   
O85      O      0.435400000000     0.961550000000     0.375870000000    -0.55695    
O86      O      0.562380000000     0.961570000000     0.373560000000    -0.557166   
O87      O      0.501200000000     0.961890000000     0.406500000000    -0.557772   
O88      O      0.496640000000     0.961160000000     0.342940000000    -0.557698   
O89      O      0.497800000000     0.537130000000     0.406030000000    -0.555636   
O90      O      0.499590000000     0.534270000000     0.342380000000    -0.557943   
O91      O      0.435250000000     0.535700000000     0.373680000000    -0.557915   
O92      O      0.562210000000     0.535810000000     0.374330000000    -0.557693   
O93      O      0.562290000000     0.461170000000     0.374730000000    -0.55773    
O94      O      0.435270000000     0.461180000000     0.375770000000    -0.557383   
O95      O      0.497570000000     0.459700000000     0.343270000000    -0.557136   
O96      O      0.500130000000     0.462550000000     0.406830000000    -0.559551   
O97      O      0.001380000000     0.036000000000     0.593210000000    -0.556782   
O98      O      0.996800000000     0.036490000000     0.656790000000    -0.557186   
O99      O      0.062530000000     0.036230000000     0.626160000000    -0.557089   
O100     O      0.935580000000     0.036250000000     0.623850000000    -0.556963   
O101     O      0.935550000000     0.961770000000     0.626190000000    -0.557123   
O102     O      0.062510000000     0.961720000000     0.624080000000    -0.556651   
O103     O      0.001090000000     0.961990000000     0.656940000000    -0.556369   
O104     O      0.996910000000     0.961510000000     0.593330000000    -0.556876   
O105     O      0.996870000000     0.460110000000     0.593480000000    -0.556613   
O106     O      0.000790000000     0.461590000000     0.657080000000    -0.556508   
O107     O      0.935340000000     0.460950000000     0.626270000000    -0.556195   
O108     O      0.062390000000     0.460870000000     0.624290000000    -0.555986   
O109     O      0.062330000000     0.535410000000     0.626130000000    -0.557649   
O110     O      0.935470000000     0.535400000000     0.623640000000    -0.557611   
O111     O      0.996480000000     0.536080000000     0.656680000000    -0.556859   
O112     O      0.001420000000     0.534590000000     0.593090000000    -0.556981   
O113     O      0.501300000000     0.961560000000     0.656800000000    -0.557627   
O114     O      0.496700000000     0.962040000000     0.593220000000    -0.557392   
O115     O      0.562510000000     0.961780000000     0.623850000000    -0.556988   
O116     O      0.435560000000     0.961810000000     0.626180000000    -0.557255   
O117     O      0.435590000000     0.036320000000     0.624090000000    -0.5571     
O118     O      0.562550000000     0.036260000000     0.626190000000    -0.557167   
O119     O      0.501170000000     0.036530000000     0.593340000000    -0.556917   
O120     O      0.497040000000     0.036050000000     0.656950000000    -0.557093   
O121     O      0.435430000000     0.462260000000     0.626150000000    -0.557901   
O122     O      0.562290000000     0.462260000000     0.623650000000    -0.557907   
O123     O      0.501290000000     0.461620000000     0.656690000000    -0.557314   
O124     O      0.496330000000     0.463040000000     0.593100000000    -0.557384   
O125     O      0.500880000000     0.537520000000     0.593480000000    -0.556995   
O126     O      0.497000000000     0.536110000000     0.657080000000    -0.557021   
O127     O      0.562430000000     0.536700000000     0.626250000000    -0.556489   
O128     O      0.435380000000     0.536800000000     0.624290000000    -0.556227   
V1       V      0.039340000000     0.003550000000     0.125090000000     1.39465    
V2       V      0.958870000000     0.003580000000     0.125060000000     1.39437    
V3       V      0.958710000000     0.503640000000     0.125080000000     1.39467    
V4       V      0.039170000000     0.503560000000     0.125120000000     1.39434    
V5       V      0.458450000000     0.994720000000     0.125090000000     1.39447    
V6       V      0.538910000000     0.993910000000     0.125080000000     1.39412    
V7       V      0.539090000000     0.494940000000     0.125120000000     1.39565    
V8       V      0.458570000000     0.493620000000     0.125130000000     1.39517    
V9       V      0.039180000000     0.001620000000     0.874600000000     1.39442    
V10      V      0.958720000000     0.001570000000     0.874630000000     1.39437    
V11      V      0.039230000000     0.501620000000     0.874610000000     1.39475    
V12      V      0.958760000000     0.501570000000     0.874650000000     1.39397    
V13      V      0.539300000000     0.996760000000     0.874630000000     1.39455    
V14      V      0.458840000000     0.995920000000     0.874580000000     1.39391    
V15      V      0.458760000000     0.497020000000     0.874610000000     1.39585    
V16      V      0.539270000000     0.495660000000     0.874630000000     1.39579    
V17      V      0.998850000000     0.039450000000     0.374720000000     1.3948     
V18      V      0.998910000000     0.958980000000     0.374490000000     1.39329    
V19      V      0.998750000000     0.539380000000     0.375140000000     1.39651    
V20      V      0.998820000000     0.458890000000     0.374090000000     1.39403    
V21      V      0.498850000000     0.039020000000     0.374500000000     1.39397    
V22      V      0.498900000000     0.958560000000     0.374730000000     1.39522    
V23      V      0.498710000000     0.538690000000     0.374110000000     1.39449    
V24      V      0.498800000000     0.458190000000     0.375150000000     1.39725    
V25      V      0.999070000000     0.039230000000     0.625000000000     1.3945     
V26      V      0.999020000000     0.958760000000     0.625140000000     1.3932     
V27      V      0.998850000000     0.457890000000     0.625300000000     1.3915     
V28      V      0.998910000000     0.538350000000     0.624860000000     1.39559    
V29      V      0.499020000000     0.958810000000     0.625010000000     1.395      
V30      V      0.499080000000     0.039280000000     0.625150000000     1.39404    
V31      V      0.498850000000     0.459310000000     0.624880000000     1.39638    
V32      V      0.498920000000     0.539780000000     0.625290000000     1.39236    


