data_structure

_audit_creation_method RASPA-1.0
_audit_creation_date 2023-6-5
_audit_author_name 'Poobodin Mano'

_cell_length_a    48.917
_cell_length_b    48.8658
_cell_length_c    29.2904
_cell_angle_alpha 89.9808
_cell_angle_beta  90.0189
_cell_angle_gamma 119.979
_cell_volume      60647.5

_symmetry_cell_setting          triclinic
_symmetry_space_group_name_Hall 'P 1'
_symmetry_space_group_name_H-M  'P 1'
_symmetry_Int_Tables_number     1

_symmetry_equiv_pos_as_xyz 'x,y,z'

loop_
_atom_site_label
_atom_site_type_symbol
_atom_site_fract_x
_atom_site_fract_y
_atom_site_fract_z
_atom_site_charge
C1       C      0.821590000000     0.666440000000     0.727180000000     0.508317   
C2       C      0.850380000000     0.670200000000     0.559720000000     0.505639   
C3       C      0.893760000000     0.694890000000     0.666520000000     0.505781   
C4       C      0.778160000000     0.641660000000     0.620610000000     0.506669   
C5       C      0.154530000000     0.822490000000     0.890270000000     0.505375   
C6       C      0.185900000000     0.845340000000     0.723260000000     0.507273   
C7       C      0.227690000000     0.863840000000     0.831180000000     0.508645   
C8       C      0.112670000000     0.804000000000     0.782320000000     0.481394   
C9       C      0.519150000000     0.005820000000     0.890610000000     0.50611    
C10      C      0.488160000000     0.999030000000     0.057510000000     0.481087   
C11      C      0.446110000000     0.973940000000     0.949760000000     0.481157   
C12      C      0.561230000000     0.030920000000     0.998270000000     0.505789   
C13      C      0.155790000000     0.331860000000     0.392480000000     0.50651    
C14      C      0.184520000000     0.335410000000     0.225110000000     0.509354   
C15      C      0.228070000000     0.362400000000     0.331720000000     0.506863   
C16      C      0.112480000000     0.304980000000     0.285570000000     0.508074   
C17      C      0.820460000000     0.156480000000     0.226520000000     0.505025   
C18      C      0.852510000000     0.179220000000     0.059710000000     0.504651   
C19      C      0.893790000000     0.196770000000     0.168160000000     0.48232    
C20      C      0.779040000000     0.138810000000     0.118160000000     0.481811   
C21      C      0.517490000000     0.516600000000     0.392770000000     0.480725   
C22      C      0.488300000000     0.491330000000     0.560040000000     0.505175   
C23      C      0.445380000000     0.473270000000     0.452980000000     0.481356   
C24      C      0.560760000000     0.534810000000     0.499720000000     0.480842   
C25      C      0.158080000000     0.339430000000     0.725260000000     0.483778   
C26      C      0.180850000000     0.331250000000     0.892250000000     0.48379    
C27      C      0.197640000000     0.306040000000     0.784380000000     0.507283   
C28      C      0.141240000000     0.364700000000     0.833160000000     0.507068   
C29      C      0.339470000000     0.156130000000     0.725340000000     0.507205   
C30      C      0.331890000000     0.179970000000     0.558390000000     0.504786   
C31      C      0.307160000000     0.197050000000     0.666380000000     0.48275    
C32      C      0.363940000000     0.138790000000     0.617540000000     0.508093   
C33      C      0.006080000000     0.489970000000     0.059120000000     0.481446   
C34      C      0.998410000000     0.513370000000     0.892160000000     0.481689   
C35      C      0.973450000000     0.530510000000     0.999750000000     0.505174   
C36      C      0.031060000000     0.472980000000     0.951380000000     0.481137   
C37      C      0.667490000000     0.848280000000     0.225200000000     0.506805   
C38      C      0.671440000000     0.823170000000     0.392490000000     0.483899   
C39      C      0.697170000000     0.805640000000     0.285870000000     0.508336   
C40      C      0.641720000000     0.865800000000     0.331810000000     0.507136   
C41      C      0.847360000000     0.664220000000     0.226920000000     0.480343   
C42      C      0.823680000000     0.671770000000     0.060080000000     0.481325   
C43      C      0.806300000000     0.696250000000     0.167970000000     0.481413   
C44      C      0.864810000000     0.639780000000     0.119090000000     0.481428   
C45      C      0.489880000000     0.003640000000     0.390520000000     0.505011   
C46      C      0.516110000000     0.001410000000     0.557820000000     0.481216   
C47      C      0.533510000000     0.975280000000     0.451400000000     0.481969   
C48      C      0.472540000000     0.029900000000     0.497030000000     0.48215    
C49      C      0.333560000000     0.152800000000     0.058040000000     0.482545   
C50      C      0.336160000000     0.181370000000     0.225280000000     0.481357   
C51      C      0.361400000000     0.224950000000     0.118480000000     0.505493   
C52      C      0.308460000000     0.109410000000     0.164730000000     0.481263   
C53      C      0.513920000000     0.516540000000     0.059690000000     0.506699   
C54      C      0.489250000000     0.485640000000     0.892810000000     0.481309   
C55      C      0.471300000000     0.443430000000     0.000590000000     0.481621   
C56      C      0.531540000000     0.558540000000     0.951900000000     0.508362   
C57      C      0.157730000000     0.819280000000     0.223100000000     0.483582   
C58      C      0.183590000000     0.847820000000     0.390350000000     0.481925   
C59      C      0.201650000000     0.891340000000     0.283620000000     0.505473   
C60      C      0.139770000000     0.775690000000     0.329590000000     0.505842   
C61      C      0.005210000000     0.515640000000     0.559470000000     0.507183   
C62      C      0.002590000000     0.486780000000     0.392220000000     0.505671   
C63      C      0.977000000000     0.443350000000     0.499080000000     0.480533   
C64      C      0.030620000000     0.558860000000     0.452690000000     0.483226   
C65      C      0.850210000000     0.182000000000     0.726790000000     0.482463   
C66      C      0.824490000000     0.154130000000     0.559330000000     0.482618   
C67      C      0.806780000000     0.110100000000     0.665340000000     0.505413   
C68      C      0.867990000000     0.226060000000     0.620720000000     0.505405   
C69      C      0.664670000000     0.819390000000     0.725360000000     0.505678   
C70      C      0.671330000000     0.849790000000     0.892430000000     0.481278   
C71      C      0.695910000000     0.892240000000     0.785000000000     0.48129    
C72      C      0.640080000000     0.776990000000     0.832950000000     0.482225   
C73      C      0.803820000000     0.060110000000     0.676890000000     0.417389   
C74      C      0.761190000000     0.067310000000     0.698890000000     0.0993522  
C75      C      0.787970000000     0.029260000000     0.693820000000    -0.213742   
C76      C      0.759000000000     0.971530000000     0.753670000000    -0.0766383  
C77      C      0.745060000000     0.036790000000     0.716960000000    -0.121222   
C78      C      0.741880000000     0.984750000000     0.734640000000     0.0175581  
C79      C      0.758450000000     0.017290000000     0.714910000000     0.0955008  
C80      C      0.743270000000     0.940700000000     0.770620000000     0.0753989  
C81      C      0.693840000000     0.935900000000     0.752620000000     0.0756552  
C82      C      0.708840000000     0.966450000000     0.734530000000    -0.0762517  
C83      C      0.870810000000     0.275940000000     0.608750000000     0.417312   
C84      C      0.913590000000     0.268870000000     0.587110000000     0.099087   
C85      C      0.886520000000     0.306680000000     0.591440000000    -0.21368    
C86      C      0.914820000000     0.363650000000     0.530310000000    -0.076393   
C87      C      0.929590000000     0.299310000000     0.568690000000    -0.120951   
C88      C      0.932270000000     0.350990000000     0.549890000000     0.0176414  
C89      C      0.916010000000     0.318650000000     0.570270000000     0.0954248  
C90      C      0.930160000000     0.394380000000     0.513060000000     0.0759924  
C91      C      0.979920000000     0.400150000000     0.531620000000     0.0749882  
C92      C      0.965290000000     0.369680000000     0.550000000000    -0.0755364  
C93      C      0.136660000000     0.725720000000     0.341820000000     0.418491   
C94      C      0.094150000000     0.733170000000     0.363650000000     0.0988537  
C95      C      0.120910000000     0.695070000000     0.359440000000    -0.213703   
C96      C      0.092760000000     0.638490000000     0.421200000000    -0.0746704  
C97      C      0.078100000000     0.702820000000     0.382380000000    -0.12126    
C98      C      0.075290000000     0.651120000000     0.401600000000     0.0185433  
C99      C      0.091540000000     0.683350000000     0.380890000000     0.0958443  
C100     C      0.077440000000     0.607800000000     0.438580000000     0.0798561  
C101     C      0.027660000000     0.602040000000     0.420200000000     0.0762123  
C102     C      0.042270000000     0.632480000000     0.401690000000    -0.0768031  
C103     C      0.579650000000     0.606760000000     0.936500000000     0.418888   
C104     C      0.530240000000     0.602280000000     0.919310000000     0.100983   
C105     C      0.595320000000     0.637790000000     0.919960000000    -0.211404   
C106     C      0.625580000000     0.698410000000     0.865850000000    -0.0758543  
C107     C      0.545190000000     0.632660000000     0.900940000000    -0.120388   
C108     C      0.594550000000     0.684220000000     0.882690000000     0.0190759  
C109     C      0.578230000000     0.651210000000     0.901320000000     0.0952623  
C110     C      0.640550000000     0.729480000000     0.849630000000     0.0763822  
C111     C      0.594480000000     0.732560000000     0.863440000000     0.0774792  
C112     C      0.579250000000     0.702070000000     0.881490000000    -0.0768353  
C113     C      0.247610000000     0.934860000000     0.250090000000     0.417197   
C114     C      0.203850000000     0.940450000000     0.271200000000     0.0990406  
C115     C      0.263030000000     0.965530000000     0.232320000000    -0.212301   
C116     C      0.297570000000     0.035930000000     0.215100000000    -0.0769358  
C117     C      0.218940000000     0.971350000000     0.254620000000    -0.121589   
C118     C      0.264590000000     0.016810000000     0.214560000000     0.0177759  
C119     C      0.248730000000     0.984230000000     0.234130000000     0.0947229  
C120     C      0.311890000000     0.066480000000     0.197100000000     0.0749081  
C121     C      0.261920000000     0.060100000000     0.178380000000     0.0749443  
C122     C      0.246870000000     0.029240000000     0.195180000000    -0.0773182  
C123     C      0.358780000000     0.268430000000     0.084930000000     0.41753    
C124     C      0.408130000000     0.274200000000     0.106400000000     0.0998487  
C125     C      0.373940000000     0.299160000000     0.067360000000    -0.211956   
C126     C      0.409340000000     0.369600000000     0.050840000000    -0.0764682  
C127     C      0.423850000000     0.305160000000     0.090040000000    -0.120985   
C128     C      0.423500000000     0.350740000000     0.050360000000     0.0184206  
C129     C      0.406890000000     0.318010000000     0.069510000000     0.0953206  
C130     C      0.425330000000     0.400210000000     0.033040000000     0.0758664  
C131     C      0.469400000000     0.394500000000     0.014830000000     0.0768945  
C132     C      0.453820000000     0.363560000000     0.031450000000    -0.0762809  
C133     C      0.638280000000     0.807470000000     0.652880000000     0.417999   
C134     C      0.690190000000     0.815510000000     0.658630000000     0.0992795  
C135     C      0.639210000000     0.805090000000     0.605440000000    -0.214073   
C136     C      0.643840000000     0.789240000000     0.506150000000    -0.0759626  
C137     C      0.691900000000     0.813540000000     0.611280000000    -0.12292    
C138     C      0.669060000000     0.810380000000     0.533540000000     0.0175305  
C139     C      0.666480000000     0.808960000000     0.584040000000     0.0961815  
C140     C      0.645540000000     0.793080000000     0.458790000000     0.0785536  
C141     C      0.696910000000     0.837660000000     0.464910000000     0.0763677  
C142     C      0.696100000000     0.834340000000     0.512290000000    -0.0772595  
C143     C      0.693030000000     0.878530000000     0.158060000000     0.417468   
C144     C      0.641790000000     0.833480000000     0.153160000000     0.102125   
C145     C      0.694110000000     0.881800000000     0.110570000000    -0.214068   
C146     C      0.645430000000     0.857510000000     0.006630000000    -0.0777308  
C147     C      0.642030000000     0.836440000000     0.105780000000    -0.121114   
C148     C      0.670750000000     0.861230000000     0.033410000000     0.0171937  
C149     C      0.668700000000     0.860300000000     0.083900000000     0.0959943  
C150     C      0.646590000000     0.855120000000     0.959230000000     0.0747009  
C151     C      0.697520000000     0.860690000000     0.964270000000     0.0751332  
C152     C      0.697320000000     0.863610000000     0.011650000000    -0.0773431  
C153     C      0.697280000000     0.757450000000     0.271120000000     0.418192   
C154     C      0.742420000000     0.806870000000     0.254440000000     0.101016   
C155     C      0.712600000000     0.741700000000     0.254880000000    -0.212165   
C156     C      0.742680000000     0.711300000000     0.200750000000    -0.0758136  
C157     C      0.757830000000     0.791830000000     0.236360000000    -0.11989    
C158     C      0.759680000000     0.742270000000     0.217920000000     0.0183831  
C159     C      0.743170000000     0.758740000000     0.236540000000     0.0948682  
C160     C      0.758580000000     0.696170000000     0.184510000000     0.0758056  
C161     C      0.807870000000     0.741960000000     0.198880000000     0.0752184  
C162     C      0.792790000000     0.757350000000     0.216990000000    -0.0776663  
C163     C      0.594530000000     0.868330000000     0.343670000000     0.418833   
C164     C      0.644220000000     0.911170000000     0.365760000000     0.100836   
C165     C      0.579410000000     0.884010000000     0.360730000000    -0.213283   
C166     C      0.550570000000     0.912630000000     0.420970000000    -0.0757895  
C167     C      0.629710000000     0.927130000000     0.383930000000    -0.121076   
C168     C      0.580760000000     0.929950000000     0.401680000000     0.0183478  
C169     C      0.596840000000     0.913550000000     0.381880000000     0.0960586  
C170     C      0.535280000000     0.928170000000     0.437820000000     0.0780857  
C171     C      0.579490000000     0.977820000000     0.419320000000     0.0751652  
C172     C      0.595230000000     0.963010000000     0.401340000000    -0.077239   
C173     C      0.030960000000     0.528910000000     0.632370000000     0.419214   
C174     C      0.978090000000     0.517940000000     0.625500000000     0.100409   
C175     C      0.029600000000     0.531470000000     0.679680000000    -0.215207   
C176     C      0.972970000000     0.500230000000     0.772630000000    -0.0748537  
C177     C      0.975910000000     0.519960000000     0.672820000000    -0.123293   
C178     C      0.999040000000     0.525200000000     0.751040000000     0.0156354  
C179     C      0.001680000000     0.526230000000     0.700530000000     0.0998344  
C180     C      0.972640000000     0.497220000000     0.820070000000     0.077223   
C181     C      0.022340000000     0.544120000000     0.825540000000     0.0769198  
C182     C      0.023580000000     0.547670000000     0.778130000000    -0.0748791  
C183     C      0.029000000000     0.483590000000     0.324970000000     0.416725   
C184     C      0.976970000000     0.475290000000     0.320110000000     0.0985515  
C185     C      0.030230000000     0.481670000000     0.277420000000    -0.213445   
C186     C      0.032820000000     0.502190000000     0.178080000000    -0.0776757  
C187     C      0.977380000000     0.472890000000     0.272710000000    -0.123606   
C188     C      0.006390000000     0.477980000000     0.200140000000     0.0176925  
C189     C      0.004480000000     0.476840000000     0.250720000000     0.0958832  
C190     C      0.032750000000     0.505290000000     0.130680000000     0.07505    
C191     C      0.981810000000     0.459930000000     0.126150000000     0.0740773  
C192     C      0.980970000000     0.456340000000     0.173520000000    -0.0788068  
C193     C      0.925740000000     0.531960000000     0.012540000000     0.417711   
C194     C      0.975210000000     0.575450000000     0.033850000000     0.0980389  
C195     C      0.910290000000     0.547390000000     0.029420000000    -0.2127     
C196     C      0.925840000000     0.626730000000     0.068480000000    -0.0775886  
C197     C      0.960400000000     0.591120000000     0.051920000000    -0.121137   
C198     C      0.911240000000     0.593660000000     0.069050000000     0.0178922  
C199     C      0.927490000000     0.577200000000     0.049950000000     0.0949611  
C200     C      0.910300000000     0.641740000000     0.086390000000     0.0745761  
C201     C      0.865780000000     0.592280000000     0.104730000000     0.0751448  
C202     C      0.880920000000     0.576520000000     0.088030000000    -0.0766911  
C203     C      0.366010000000     0.171000000000     0.797660000000     0.420633   
C204     C      0.314870000000     0.125920000000     0.791940000000     0.101265   
C205     C      0.365400000000     0.167520000000     0.845060000000    -0.212614   
C206     C      0.361670000000     0.147060000000     0.944410000000    -0.076491   
C207     C      0.313450000000     0.122060000000     0.839290000000    -0.121414   
C208     C      0.336150000000     0.142180000000     0.917040000000     0.0185738  
C209     C      0.338620000000     0.143410000000     0.866500000000     0.0971021  
C210     C      0.359940000000     0.149230000000     0.991800000000     0.0762907  
C211     C      0.308060000000     0.141050000000     0.985650000000     0.078283   
C212     C      0.308860000000     0.138410000000     0.938300000000    -0.0758822  
C213     C      0.355990000000     0.210270000000     0.490740000000     0.418376   
C214     C      0.305460000000     0.164180000000     0.486830000000     0.0992091  
C215     C      0.356590000000     0.213240000000     0.443260000000    -0.213775   
C216     C      0.360920000000     0.195800000000     0.344970000000    -0.0780172  
C217     C      0.305280000000     0.166740000000     0.439350000000    -0.121814   
C218     C      0.333490000000     0.191560000000     0.366390000000     0.0173462  
C219     C      0.331440000000     0.190960000000     0.416960000000     0.0957304  
C220     C      0.361690000000     0.193210000000     0.297630000000     0.075564   
C221     C      0.309430000000     0.184050000000     0.291760000000     0.0753748  
C222     C      0.307710000000     0.186080000000     0.339200000000    -0.0771702  
C223     C      0.411430000000     0.137080000000     0.604120000000     0.42178    
C224     C      0.361740000000     0.093580000000     0.583590000000     0.101368   
C225     C      0.426680000000     0.121550000000     0.586880000000    -0.212123   
C226     C      0.455410000000     0.092570000000     0.527000000000    -0.0768778  
C227     C      0.376350000000     0.077780000000     0.565230000000    -0.120918   
C228     C      0.425380000000     0.075310000000     0.546790000000     0.0184434  
C229     C      0.409270000000     0.091710000000     0.566510000000     0.096241   
C230     C      0.470680000000     0.077000000000     0.510180000000     0.0762629  
C231     C      0.426750000000     0.027410000000     0.529670000000     0.0763631  
C232     C      0.411060000000     0.042260000000     0.547690000000    -0.0766772  
C233     C      0.143130000000     0.410610000000     0.865420000000     0.417483   
C234     C      0.093890000000     0.365400000000     0.848240000000     0.0998921  
C235     C      0.127740000000     0.425790000000     0.883360000000    -0.213279   
C236     C      0.092730000000     0.460310000000     0.902610000000    -0.0764818  
C237     C      0.077870000000     0.380430000000     0.864310000000    -0.120637   
C238     C      0.077940000000     0.427190000000     0.901520000000     0.0180112  
C239     C      0.094660000000     0.410960000000     0.882840000000     0.0949715  
C240     C      0.077060000000     0.475110000000     0.920690000000     0.0757231  
C241     C      0.031570000000     0.425520000000     0.934790000000     0.0748563  
C242     C      0.046990000000     0.409890000000     0.918550000000    -0.077194   
C243     C      0.195680000000     0.260160000000     0.751900000000     0.418708   
C244     C      0.244950000000     0.305230000000     0.769450000000     0.10081    
C245     C      0.211020000000     0.244930000000     0.734030000000    -0.213149   
C246     C      0.245760000000     0.210150000000     0.715090000000    -0.0757705  
C247     C      0.260920000000     0.290130000000     0.753440000000    -0.120178   
C248     C      0.260730000000     0.243280000000     0.716270000000     0.0190451  
C249     C      0.244080000000     0.259630000000     0.734800000000     0.0961334  
C250     C      0.261300000000     0.195210000000     0.697040000000     0.0770753  
C251     C      0.307020000000     0.244680000000     0.683230000000     0.0779256  
C252     C      0.291740000000     0.260450000000     0.699440000000    -0.0753606  
C253     C      0.475350000000     0.504390000000     0.632790000000     0.417575   
C254     C      0.484840000000     0.461450000000     0.626160000000     0.099938   
C255     C      0.472460000000     0.500390000000     0.680100000000    -0.213819   
C256     C      0.455630000000     0.478330000000     0.778650000000    -0.0772447  
C257     C      0.482420000000     0.457110000000     0.673440000000    -0.121843   
C258     C      0.477570000000     0.475320000000     0.751590000000     0.0175376  
C259     C      0.476760000000     0.477100000000     0.701050000000     0.0961911  
C260     C      0.459050000000     0.480310000000     0.826100000000     0.0751432  
C261     C      0.504740000000     0.475340000000     0.820690000000     0.0764391  
C262     C      0.501840000000     0.472980000000     0.773240000000    -0.0762447  
C263     C      0.544450000000     0.522580000000     0.127030000000     0.41992    
C264     C      0.499050000000     0.528180000000     0.131250000000     0.100707   
C265     C      0.547870000000     0.525440000000     0.174430000000    -0.213558   
C266     C      0.522220000000     0.549080000000     0.278300000000    -0.0764243  
C267     C      0.502050000000     0.531400000000     0.178650000000    -0.121546   
C268     C      0.527170000000     0.528250000000     0.251460000000     0.0176324  
C269     C      0.526160000000     0.529170000000     0.200870000000     0.0967074  
C270     C      0.520410000000     0.545760000000     0.325810000000     0.0753823  
C271     C      0.528900000000     0.502140000000     0.320710000000     0.075449   
C272     C      0.531230000000     0.505050000000     0.273310000000    -0.0774441  
C273     C      0.864670000000     0.164150000000     0.987840000000     0.416802   
C274     C      0.857930000000     0.208900000000     0.992590000000     0.098821   
C275     C      0.867540000000     0.167350000000     0.940380000000    -0.213335   
C276     C      0.883870000000     0.187340000000     0.840530000000    -0.0766461  
C277     C      0.860430000000     0.212510000000     0.945240000000    -0.122721   
C278     C      0.863130000000     0.192070000000     0.867910000000     0.0171696  
C279     C      0.864520000000     0.191150000000     0.918470000000     0.0953781  
C280     C      0.880050000000     0.185310000000     0.793110000000     0.0760921  
C281     C      0.836140000000     0.193190000000     0.799290000000     0.0766842  
C282     C      0.839510000000     0.195690000000     0.846630000000    -0.0768476  
C283     C      0.809310000000     0.172000000000     0.298720000000     0.417051   
C284     C      0.814860000000     0.126560000000     0.293450000000     0.0991461  
C285     C      0.806750000000     0.168860000000     0.346190000000    -0.214129   
C286     C      0.790390000000     0.148610000000     0.445910000000    -0.0768404  
C287     C      0.812750000000     0.123050000000     0.340830000000    -0.122625   
C288     C      0.810990000000     0.143810000000     0.418340000000     0.0169677  
C289     C      0.809370000000     0.144760000000     0.367830000000     0.0955083  
C290     C      0.794410000000     0.150710000000     0.493280000000     0.075842   
C291     C      0.838290000000     0.142800000000     0.486670000000     0.0764826  
C292     C      0.834680000000     0.140180000000     0.439340000000    -0.0767589  
C293     C      0.143530000000     0.306290000000     0.465550000000     0.419507   
C294     C      0.153310000000     0.358830000000     0.458540000000     0.101111   
C295     C      0.141210000000     0.307760000000     0.512900000000    -0.213907   
C296     C      0.124470000000     0.313820000000     0.611090000000    -0.0760346  
C297     C      0.151540000000     0.361120000000     0.505840000000    -0.121826   
C298     C      0.146930000000     0.338360000000     0.584050000000     0.0181479  
C299     C      0.145960000000     0.335590000000     0.533610000000     0.0970546  
C300     C      0.127790000000     0.315260000000     0.658490000000     0.0791117  
C301     C      0.174480000000     0.365160000000     0.653120000000     0.0770918  
C302     C      0.171680000000     0.364640000000     0.605630000000    -0.07632    
C303     C      0.188410000000     0.309350000000     0.157980000000     0.423332   
C304     C      0.194800000000     0.360710000000     0.152830000000     0.103671   
C305     C      0.190080000000     0.307970000000     0.110450000000    -0.212155   
C306     C      0.168230000000     0.304860000000     0.011370000000    -0.0757395  
C307     C      0.197060000000     0.360200000000     0.105420000000    -0.121548   
C308     C      0.192690000000     0.331210000000     0.033200000000     0.0189395  
C309     C      0.193920000000     0.333330000000     0.083670000000     0.0981688  
C310     C      0.165120000000     0.304810000000     0.963960000000     0.0778966  
C311     C      0.211010000000     0.355390000000     0.959150000000     0.0787005  
C312     C      0.214550000000     0.356400000000     0.006500000000    -0.0762257  
C313     C      0.068080000000     0.259140000000     0.254070000000     0.421926   
C314     C      0.064640000000     0.304820000000     0.270400000000     0.101719   
C315     C      0.037460000000     0.244060000000     0.236460000000    -0.212291   
C316     C      0.967990000000     0.209740000000     0.217890000000    -0.0751426  
C317     C      0.033510000000     0.289890000000     0.254620000000    -0.11979    
C318     C      0.986340000000     0.242860000000     0.218490000000     0.0181718  
C319     C      0.019420000000     0.259130000000     0.236770000000     0.0974016  
C320     C      0.937550000000     0.194840000000     0.199750000000     0.0782694  
C321     C      0.941620000000     0.244360000000     0.184860000000     0.0771734  
C322     C      0.972650000000     0.260080000000     0.201170000000    -0.0759966  
C323     C      0.277350000000     0.410150000000     0.343660000000     0.418538   
C324     C      0.271250000000     0.360790000000     0.366190000000     0.101999   
C325     C      0.308110000000     0.425740000000     0.360910000000    -0.212596   
C326     C      0.365720000000     0.455580000000     0.421090000000    -0.0757419  
C327     C      0.301660000000     0.375760000000     0.384560000000    -0.11938    
C328     C      0.353060000000     0.425240000000     0.402260000000     0.0183904  
C329     C      0.320590000000     0.408710000000     0.382350000000     0.0956722  
C330     C      0.396480000000     0.471170000000     0.438240000000     0.076719   
C331     C      0.402300000000     0.427010000000     0.420820000000     0.0756287  
C332     C      0.371850000000     0.410990000000     0.402550000000    -0.0767461  
C333     C      0.525860000000     0.981760000000     0.823280000000     0.417702   
C334     C      0.529460000000     0.031950000000     0.818880000000     0.101394   
C335     C      0.528320000000     0.981080000000     0.775810000000    -0.214333   
C336     C      0.549730000000     0.029750000000     0.671550000000    -0.0778543  
C337     C      0.532350000000     0.032090000000     0.771450000000    -0.121245   
C338     C      0.529470000000     0.003930000000     0.698770000000     0.017373   
C339     C      0.530900000000     0.006060000000     0.749310000000     0.0960482  
C340     C      0.545820000000     0.028070000000     0.624140000000     0.0743859  
C341     C      0.502680000000     0.975790000000     0.630120000000     0.0756047  
C342     C      0.506220000000     0.976510000000     0.677430000000    -0.0773985  
C343     C      0.459850000000     0.977240000000     0.323540000000     0.417555   
C344     C      0.503970000000     0.029040000000     0.318230000000     0.099582   
C345     C      0.456470000000     0.975920000000     0.276030000000    -0.21301    
C346     C      0.480460000000     0.024890000000     0.171780000000    -0.076918   
C347     C      0.500940000000     0.028540000000     0.270850000000    -0.122762   
C348     C      0.476440000000     0.999400000000     0.198550000000     0.0173643  
C349     C      0.477470000000     0.001500000000     0.249110000000     0.0962849  
C350     C      0.482980000000     0.023820000000     0.124400000000     0.0754604  
C351     C      0.476690000000     0.972550000000     0.129240000000     0.0757888  
C352     C      0.473740000000     0.972710000000     0.176650000000    -0.0763979  
C353     C      0.610590000000     0.078500000000     0.010850000000     0.41732    
C354     C      0.604200000000     0.028900000000     0.032630000000     0.100472   
C355     C      0.641460000000     0.093830000000     0.027740000000    -0.21279    
C356     C      0.700000000000     0.123190000000     0.086270000000    -0.0758516  
C357     C      0.634670000000     0.043600000000     0.050720000000    -0.120621   
C358     C      0.686570000000     0.092680000000     0.067730000000     0.0179162  
C359     C      0.653870000000     0.076530000000     0.048540000000     0.0952681  
C360     C      0.730870000000     0.138220000000     0.103060000000     0.0763672  
C361     C      0.735330000000     0.093280000000     0.085680000000     0.076226   
C362     C      0.704810000000     0.077830000000     0.067690000000    -0.0761114  
C363     C      0.198300000000     0.830510000000     0.651380000000     0.418752   
C364     C      0.190890000000     0.874850000000     0.656120000000     0.101445   
C365     C      0.201170000000     0.833730000000     0.603930000000    -0.213242   
C366     C      0.217310000000     0.853560000000     0.504150000000    -0.0755563  
C367     C      0.193410000000     0.878500000000     0.608780000000    -0.122098   
C368     C      0.196520000000     0.858280000000     0.531440000000     0.0172484  
C369     C      0.197840000000     0.857350000000     0.582010000000     0.0961663  
C370     C      0.213480000000     0.851400000000     0.456730000000     0.0768417  
C371     C      0.169540000000     0.859230000000     0.462710000000     0.0751879  
C372     C      0.172880000000     0.861820000000     0.510050000000    -0.0778381  
C373     C      0.143170000000     0.837730000000     0.962570000000     0.417717   
C374     C      0.149130000000     0.792540000000     0.957080000000     0.0990398  
C375     C      0.140500000000     0.834430000000     0.010010000000    -0.213099   
C376     C      0.123940000000     0.813930000000     0.109530000000    -0.0774087  
C377     C      0.146870000000     0.788850000000     0.004440000000    -0.122597   
C378     C      0.144620000000     0.809190000000     0.082060000000     0.0175511  
C379     C      0.143220000000     0.810340000000     0.031540000000     0.0955827  
C380     C      0.127810000000     0.815920000000     0.156920000000     0.0758614  
C381     C      0.171630000000     0.807920000000     0.150560000000     0.0791134  
C382     C      0.168200000000     0.805440000000     0.103200000000    -0.0757453  
C383     C      0.275980000000     0.912060000000     0.845730000000     0.420369   
C384     C      0.271450000000     0.862720000000     0.864050000000     0.102816   
C385     C      0.306990000000     0.927870000000     0.862210000000    -0.211478   
C386     C      0.367390000000     0.958660000000     0.916530000000    -0.0753453  
C387     C      0.301870000000     0.877850000000     0.882320000000    -0.119666   
C388     C      0.353360000000     0.927490000000     0.900120000000     0.0188252  
C389     C      0.320390000000     0.910920000000     0.881420000000     0.0959931  
C390     C      0.398440000000     0.973920000000     0.932720000000     0.0759988  
C391     C      0.401850000000     0.927900000000     0.919740000000     0.0766298  
C392     C      0.371340000000     0.912350000000     0.901780000000    -0.0759137  
C393     C      0.808860000000     0.640390000000     0.799880000000     0.423918   
C394     C      0.818940000000     0.693050000000     0.793620000000     0.10114    
C395     C      0.806340000000     0.641500000000     0.847230000000    -0.212444   
C396     C      0.790040000000     0.646410000000     0.945790000000    -0.0759878  
C397     C      0.816880000000     0.694970000000     0.840980000000    -0.121816   
C398     C      0.811960000000     0.671550000000     0.918980000000     0.0180294  
C399     C      0.811080000000     0.669180000000     0.868420000000     0.0976348  
C400     C      0.793540000000     0.647460000000     0.993180000000     0.0766044  
C401     C      0.839180000000     0.698200000000     0.988340000000     0.07481    
C402     C      0.836240000000     0.698020000000     0.940880000000    -0.0772277  
C403     C      0.863320000000     0.696260000000     0.487010000000     0.417165   
C404     C      0.852690000000     0.643410000000     0.493290000000     0.10009    
C405     C      0.865750000000     0.695080000000     0.439640000000    -0.214434   
C406     C      0.881700000000     0.689490000000     0.340890000000    -0.0784952  
C407     C      0.854600000000     0.641420000000     0.445930000000    -0.121522   
C408     C      0.859450000000     0.664760000000     0.367960000000     0.0164469  
C409     C      0.860620000000     0.667250000000     0.418480000000     0.0949717  
C410     C      0.878060000000     0.688300000000     0.293510000000     0.0737207  
C411     C      0.831510000000     0.638300000000     0.298950000000     0.0740033  
C412     C      0.834610000000     0.638580000000     0.346370000000    -0.0779809  
C413     C      0.728090000000     0.594960000000     0.608590000000     0.420004   
C414     C      0.735590000000     0.645050000000     0.587170000000     0.100548   
C415     C      0.697350000000     0.580210000000     0.591400000000    -0.212631   
C416     C      0.640340000000     0.551920000000     0.530650000000    -0.0763761  
C417     C      0.705140000000     0.630900000000     0.568840000000    -0.119857   
C418     C      0.653230000000     0.582120000000     0.550010000000     0.018398   
C419     C      0.685580000000     0.597990000000     0.570350000000     0.0959526  
C420     C      0.609580000000     0.536650000000     0.513620000000     0.076237   
C421     C      0.604200000000     0.580950000000     0.531790000000     0.0760323  
C422     C      0.634720000000     0.596690000000     0.549990000000    -0.075421   
C423     C      0.937260000000     0.692150000000     0.699530000000     0.417831   
C424     C      0.943080000000     0.741620000000     0.678400000000     0.0999129  
C425     C      0.968070000000     0.707210000000     0.716680000000    -0.211197   
C426     C      0.038480000000     0.742220000000     0.732660000000    -0.0759026  
C427     C      0.974140000000     0.757250000000     0.694300000000    -0.119864   
C428     C      0.019870000000     0.756670000000     0.733130000000     0.0192588  
C429     C      0.987030000000     0.740180000000     0.714420000000     0.0936052  
C430     C      0.069140000000     0.758060000000     0.750250000000     0.0763012  
C431     C      0.064010000000     0.802550000000     0.768090000000     0.0759428  
C432     C      0.033040000000     0.787140000000     0.751740000000    -0.0769621  
F1       F      0.832290000000     0.070170000000     0.656680000000    -0.453073   
F2       F      0.842340000000     0.265890000000     0.628970000000    -0.452945   
F3       F      0.165000000000     0.735520000000     0.321340000000    -0.450324   
F4       F      0.597500000000     0.595220000000     0.954420000000    -0.44629    
F5       F      0.262550000000     0.917820000000     0.246420000000    -0.450108   
F6       F      0.326850000000     0.251270000000     0.080970000000    -0.450573   
F7       F      0.611340000000     0.804090000000     0.671570000000    -0.451487   
F8       F      0.718680000000     0.899830000000     0.182070000000    -0.453471   
F9       F      0.667810000000     0.739640000000     0.288690000000    -0.452219   
F10      F      0.576250000000     0.839820000000     0.323400000000    -0.450389   
F11      F      0.058650000000     0.533860000000     0.614270000000    -0.450642   
F12      F      0.054960000000     0.488860000000     0.349000000000    -0.45107    
F13      F      0.907720000000     0.503220000000     0.992780000000    -0.451577   
F14      F      0.392490000000     0.195230000000     0.778950000000    -0.443431   
F15      F      0.381390000000     0.232440000000     0.514260000000    -0.447911   
F16      F      0.429670000000     0.165860000000     0.623640000000    -0.440786   
F17      F      0.175170000000     0.426150000000     0.867770000000    -0.454102   
F18      F      0.163650000000     0.244730000000     0.749310000000    -0.45265    
F19      F      0.471380000000     0.527770000000     0.614590000000    -0.451733   
F20      F      0.566070000000     0.518530000000     0.103380000000    -0.446702   
F21      F      0.867120000000     0.140140000000     0.007050000000    -0.451589   
F22      F      0.807210000000     0.196270000000     0.279750000000    -0.45333    
F23      F      0.139130000000     0.278750000000     0.447500000000    -0.446334   
F24      F      0.184100000000     0.283750000000     0.182150000000    -0.439485   
F25      F      0.084300000000     0.243270000000     0.251900000000    -0.4393     
F26      F      0.266780000000     0.428060000000     0.323120000000    -0.451446   
F27      F      0.522840000000     0.956500000000     0.847040000000    -0.453018   
F28      F      0.439050000000     0.951440000000     0.347790000000    -0.449823   
F29      F      0.600090000000     0.096650000000     0.990850000000    -0.452396   
F30      F      0.201080000000     0.806690000000     0.670580000000    -0.450502   
F31      F      0.140960000000     0.861980000000     0.943720000000    -0.450239   
F32      F      0.264500000000     0.929810000000     0.827260000000    -0.450205   
F33      F      0.804390000000     0.612910000000     0.781480000000    -0.437374   
F34      F      0.868120000000     0.723850000000     0.505430000000    -0.454149   
F35      F      0.737900000000     0.576280000000     0.628700000000    -0.443141   
F36      F      0.920030000000     0.660190000000     0.703580000000    -0.445467   
H1       H      0.757540000000     0.931430000000     0.784590000000     0.0287035  
H2       H      0.749980000000     0.081570000000     0.701950000000     0.0230837  
H3       H      0.694460000000     0.975260000000     0.719690000000     0.0534981  
H4       H      0.722520000000     0.028940000000     0.733360000000     0.0643936  
H5       H      0.784490000000     0.984880000000     0.755830000000     0.0565687  
H6       H      0.798880000000     0.014820000000     0.689940000000     0.116719   
H7       H      0.668280000000     0.922550000000     0.751310000000     0.0336158  
H8       H      0.915610000000     0.403220000000     0.498760000000     0.0294378  
H9       H      0.924890000000     0.254690000000     0.584340000000     0.0233968  
H10      H      0.979900000000     0.361240000000     0.565140000000     0.0531179  
H11      H      0.952160000000     0.307200000000     0.552340000000     0.0641008  
H12      H      0.889340000000     0.349950000000     0.528050000000     0.056943   
H13      H      0.875490000000     0.321040000000     0.595010000000     0.117197   
H14      H      0.005460000000     0.413880000000     0.533050000000     0.035757   
H15      H      0.092010000000     0.598980000000     0.452850000000     0.0394584  
H16      H      0.082980000000     0.747480000000     0.366380000000     0.0213754  
H17      H      0.027650000000     0.640910000000     0.386570000000     0.0513112  
H18      H      0.055610000000     0.695090000000     0.398900000000     0.0632443  
H19      H      0.118250000000     0.652180000000     0.423330000000     0.0608962  
H20      H      0.131800000000     0.680590000000     0.355890000000     0.119579   
H21      H      0.002110000000     0.588330000000     0.418890000000     0.0281174  
H22      H      0.664570000000     0.739520000000     0.837320000000     0.0284161  
H23      H      0.504660000000     0.589010000000     0.917920000000     0.0222684  
H24      H      0.555750000000     0.693030000000     0.895120000000     0.0529898  
H25      H      0.530570000000     0.641090000000     0.885890000000     0.0645453  
H26      H      0.638410000000     0.685710000000     0.864600000000     0.0563736  
H27      H      0.620770000000     0.651160000000     0.922550000000     0.117263   
H28      H      0.581630000000     0.745340000000     0.863480000000     0.0308948  
H29      H      0.337420000000     0.080490000000     0.198770000000     0.0282107  
H30      H      0.180720000000     0.931570000000     0.286360000000     0.0213149  
H31      H      0.221420000000     0.015250000000     0.192660000000     0.052732   
H32      H      0.207180000000     0.985010000000     0.258180000000     0.0625557  
H33      H      0.312400000000     0.027740000000     0.230210000000     0.0559436  
H34      H      0.285800000000     0.974150000000     0.216240000000     0.117496   
H35      H      0.247170000000     0.068740000000     0.164150000000     0.0296806  
H36      H      0.413500000000     0.413940000000     0.034570000000     0.0291621  
H37      H      0.422440000000     0.265380000000     0.121630000000     0.0225064  
H38      H      0.465560000000     0.349820000000     0.029060000000     0.0543058  
H39      H      0.449230000000     0.318910000000     0.093840000000     0.0643818  
H40      H      0.386220000000     0.361150000000     0.065680000000     0.0568516  
H41      H      0.359740000000     0.307730000000     0.051210000000     0.117634   
H42      H      0.492870000000     0.403440000000     0.000870000000     0.0332011  
H43      H      0.625220000000     0.776560000000     0.438960000000     0.0373616  
H44      H      0.710770000000     0.819770000000     0.678180000000     0.0219717  
H45      H      0.716070000000     0.851290000000     0.532250000000     0.0532943  
H46      H      0.713240000000     0.816120000000     0.596060000000     0.0642311  
H47      H      0.622690000000     0.770120000000     0.521270000000     0.0592297  
H48      H      0.619030000000     0.801510000000     0.585480000000     0.119163   
H49      H      0.717970000000     0.857100000000     0.450010000000     0.0295582  
H50      H      0.626210000000     0.851610000000     0.939840000000     0.0300004  
H51      H      0.620910000000     0.814060000000     0.168440000000     0.0305541  
H52      H      0.717330000000     0.866360000000     0.031240000000     0.0570862  
H53      H      0.621900000000     0.819260000000     0.086280000000     0.0666108  
H54      H      0.624620000000     0.855920000000     0.022270000000     0.0544252  
H55      H      0.714970000000     0.900840000000     0.094710000000     0.117291   
H56      H      0.718190000000     0.861750000000     0.948930000000     0.0285507  
H57      H      0.744480000000     0.672200000000     0.171930000000     0.0313407  
H58      H      0.754810000000     0.832470000000     0.253140000000     0.0280947  
H59      H      0.807350000000     0.780800000000     0.230850000000     0.0517196  
H60      H      0.780970000000     0.806400000000     0.221610000000     0.0641004  
H61      H      0.717180000000     0.698660000000     0.199260000000     0.0578892  
H62      H      0.700420000000     0.716210000000     0.257410000000     0.117011   
H63      H      0.833460000000     0.754630000000     0.199110000000     0.026864   
H64      H      0.511840000000     0.913730000000     0.451940000000     0.034107   
H65      H      0.669670000000     0.922530000000     0.368810000000     0.0244597  
H66      H      0.618320000000     0.977520000000     0.386340000000     0.0520889  
H67      H      0.644300000000     0.949700000000     0.400380000000     0.0636299  
H68      H      0.538670000000     0.887130000000     0.423330000000     0.0592165  
H69      H      0.554060000000     0.872960000000     0.356910000000     0.119285   
H70      H      0.591440000000     0.003400000000     0.417760000000     0.0278091  
H71      H      0.952440000000     0.476980000000     0.835250000000     0.0346622  
H72      H      0.957290000000     0.512380000000     0.605510000000     0.0244105  
H73      H      0.043950000000     0.567580000000     0.762730000000     0.05738    
H74      H      0.954000000000     0.516170000000     0.687660000000     0.0692012  
H75      H      0.953560000000     0.482270000000     0.752890000000     0.0556048  
H76      H      0.050060000000     0.536360000000     0.700010000000     0.118874   
H77      H      0.042200000000     0.561680000000     0.845110000000     0.0292709  
H78      H      0.053310000000     0.524940000000     0.115140000000     0.0290959  
H79      H      0.955680000000     0.472870000000     0.335380000000     0.0222605  
H80      H      0.960270000000     0.437020000000     0.189280000000     0.0533343  
H81      H      0.956970000000     0.469230000000     0.253300000000     0.064357   
H82      H      0.052920000000     0.519510000000     0.197460000000     0.0577827  
H83      H      0.051450000000     0.484370000000     0.261550000000     0.117412   
H84      H      0.961320000000     0.443010000000     0.106980000000     0.0308587  
H85      H      0.922470000000     0.667330000000     0.084810000000     0.0271596  
H86      H      0.000700000000     0.587180000000     0.036690000000     0.0226346  
H87      H      0.868850000000     0.551020000000     0.090440000000     0.0561783  
H88      H      0.974850000000     0.613830000000     0.068100000000     0.0618096  
H89      H      0.948950000000     0.641140000000     0.053490000000     0.0517579  
H90      H      0.884910000000     0.535980000000     0.025800000000     0.118525   
H91      H      0.842280000000     0.578030000000     0.118780000000     0.029227   
H92      H      0.380470000000     0.153670000000     0.011660000000     0.0291785  
H93      H      0.294470000000     0.109200000000     0.772420000000     0.0242928  
H94      H      0.288660000000     0.134790000000     0.918360000000     0.0558095  
H95      H      0.292490000000     0.102790000000     0.854560000000     0.0670796  
H96      H      0.383060000000     0.149700000000     0.929260000000     0.057857   
H97      H      0.385380000000     0.184520000000     0.864980000000     0.119988   
H98      H      0.286750000000     0.138850000000     0.000500000000     0.0342883  
H99      H      0.383150000000     0.195880000000     0.282650000000     0.028603   
H100     H      0.285080000000     0.144430000000     0.502520000000     0.0226914  
H101     H      0.286190000000     0.183020000000     0.354500000000     0.0552885  
H102     H      0.285340000000     0.148960000000     0.420210000000     0.0642049  
H103     H      0.381320000000     0.199890000000     0.364790000000     0.057788   
H104     H      0.376980000000     0.232680000000     0.427100000000     0.118108   
H105     H      0.288740000000     0.179220000000     0.272010000000     0.0327585  
H106     H      0.494010000000     0.091400000000     0.495640000000     0.0290774  
H107     H      0.336230000000     0.081890000000     0.581230000000     0.0227261  
H108     H      0.388120000000     0.027780000000     0.563140000000     0.0540647  
H109     H      0.361750000000     0.055010000000     0.549310000000     0.0642503  
H110     H      0.467200000000     0.118050000000     0.524200000000     0.0575916  
H111     H      0.452090000000     0.132930000000     0.590030000000     0.119568   
H112     H      0.414910000000     0.001850000000     0.531650000000     0.0319042  
H113     H      0.089500000000     0.500730000000     0.920570000000     0.028882   
H114     H      0.079810000000     0.341740000000     0.834540000000     0.022419   
H115     H      0.034560000000     0.384360000000     0.919920000000     0.051369   
H116     H      0.052420000000     0.368010000000     0.861630000000     0.0630337  
H117     H      0.116160000000     0.475080000000     0.888900000000     0.0564931  
H118     H      0.142050000000     0.448900000000     0.898420000000     0.116747   
H119     H      0.007630000000     0.411180000000     0.947240000000     0.0278335  
H120     H      0.248720000000     0.169590000000     0.697060000000     0.0290441  
H121     H      0.259060000000     0.328840000000     0.783270000000     0.0226539  
H122     H      0.304310000000     0.285980000000     0.698180000000     0.0538867  
H123     H      0.286370000000     0.302450000000     0.756270000000     0.0643732  
H124     H      0.222280000000     0.195470000000     0.728700000000     0.0566923  
H125     H      0.196690000000     0.221870000000     0.718820000000     0.118114   
H126     H      0.331020000000     0.258910000000     0.670890000000     0.0355122  
H127     H      0.441960000000     0.483370000000     0.845670000000     0.028558   
H128     H      0.489900000000     0.445790000000     0.606280000000     0.0247972  
H129     H      0.519380000000     0.470770000000     0.753560000000     0.0562771  
H130     H      0.485470000000     0.438510000000     0.688320000000     0.0665773  
H131     H      0.436260000000     0.479770000000     0.763200000000     0.0561297  
H132     H      0.468080000000     0.516360000000     0.700340000000     0.118112   
H133     H      0.524460000000     0.474390000000     0.835890000000     0.0336211  
H134     H      0.515930000000     0.561980000000     0.345280000000     0.0313161  
H135     H      0.479410000000     0.529120000000     0.115730000000     0.0237354  
H136     H      0.534930000000     0.488340000000     0.253800000000     0.0570593  
H137     H      0.484690000000     0.534200000000     0.197880000000     0.0655401  
H138     H      0.519330000000     0.567580000000     0.262660000000     0.056099   
H139     H      0.567200000000     0.524200000000     0.190430000000     0.11852    
H140     H      0.531360000000     0.483290000000     0.336020000000     0.0290597  
H141     H      0.896240000000     0.181040000000     0.773220000000     0.032362   
H142     H      0.854020000000     0.225630000000     0.011710000000     0.0231919  
H143     H      0.822830000000     0.199170000000     0.866550000000     0.054673   
H144     H      0.858530000000     0.231590000000     0.929630000000     0.0644724  
H145     H      0.902680000000     0.184800000000     0.855690000000     0.0570487  
H146     H      0.870760000000     0.150360000000     0.920790000000     0.118227   
H147     H      0.816990000000     0.195330000000     0.784450000000     0.0338772  
H148     H      0.778320000000     0.155030000000     0.513310000000     0.0316482  
H149     H      0.818220000000     0.109560000000     0.274090000000     0.0243174  
H150     H      0.851230000000     0.136630000000     0.419220000000     0.0547284  
H151     H      0.814370000000     0.103760000000     0.356280000000     0.0650999  
H152     H      0.771540000000     0.151170000000     0.430940000000     0.0561632  
H153     H      0.804070000000     0.186100000000     0.366000000000     0.117699   
H154     H      0.857500000000     0.140680000000     0.501350000000     0.0339796  
H155     H      0.110210000000     0.295380000000     0.678020000000     0.0358377  
H156     H      0.158290000000     0.379470000000     0.438490000000     0.0280993  
H157     H      0.189600000000     0.384080000000     0.585860000000     0.055764   
H158     H      0.154930000000     0.382930000000     0.520600000000     0.0672246  
H159     H      0.104730000000     0.293320000000     0.595650000000     0.059261   
H160     H      0.136830000000     0.287480000000     0.533340000000     0.121533   
H161     H      0.194550000000     0.385480000000     0.668380000000     0.0319428  
H162     H      0.145300000000     0.284360000000     0.948510000000     0.0331708  
H163     H      0.196540000000     0.381760000000     0.168020000000     0.0288699  
H164     H      0.234000000000     0.377030000000     0.022190000000     0.0562401  
H165     H      0.199970000000     0.380290000000     0.085820000000     0.0684651  
H166     H      0.150780000000     0.284940000000     0.030940000000     0.0617643  
H167     H      0.187970000000     0.286950000000     0.094650000000     0.123144   
H168     H      0.228150000000     0.375710000000     0.939870000000     0.0349687  
H169     H      0.924410000000     0.169220000000     0.200180000000     0.032311   
H170     H      0.074500000000     0.328640000000     0.283600000000     0.0246204  
H171     H      0.985720000000     0.285600000000     0.199510000000     0.0521209  
H172     H      0.020670000000     0.302550000000     0.257000000000     0.0648722  
H173     H      0.976630000000     0.195020000000     0.231970000000     0.0582043  
H174     H      0.028450000000     0.220800000000     0.221800000000     0.121203   
H175     H      0.931990000000     0.258630000000     0.172080000000     0.0298069  
H176     H      0.405310000000     0.494700000000     0.452010000000     0.0347909  
H177     H      0.257480000000     0.335290000000     0.369360000000     0.0309964  
H178     H      0.363490000000     0.387820000000     0.387880000000     0.0539762  
H179     H      0.309880000000     0.361440000000     0.401270000000     0.0664826  
H180     H      0.351990000000     0.467360000000     0.422930000000     0.0583467  
H181     H      0.322090000000     0.451130000000     0.356980000000     0.117608   
H182     H      0.416030000000     0.415170000000     0.419790000000     0.0297164  
H183     H      0.561620000000     0.048770000000     0.604360000000     0.0281067  
H184     H      0.529760000000     0.052250000000     0.834350000000     0.0288309  
H185     H      0.489950000000     0.956090000000     0.697290000000     0.0583804  
H186     H      0.534260000000     0.051880000000     0.752140000000     0.0668448  
H187     H      0.568200000000     0.051270000000     0.686840000000     0.053835   
H188     H      0.527640000000     0.960760000000     0.759790000000     0.117596   
H189     H      0.483800000000     0.954340000000     0.615190000000     0.0309081  
H190     H      0.486760000000     0.044360000000     0.105090000000     0.0310993  
H191     H      0.523080000000     0.050270000000     0.333310000000     0.0222954  
H192     H      0.470760000000     0.952550000000     0.196140000000     0.0588345  
H193     H      0.517780000000     0.048820000000     0.251260000000     0.0645371  
H194     H      0.482220000000     0.045800000000     0.187430000000     0.0532447  
H195     H      0.437700000000     0.954750000000     0.260370000000     0.12025    
H196     H      0.475400000000     0.951770000000     0.113830000000     0.0307911  
H197     H      0.740290000000     0.161860000000     0.116760000000     0.0336034  
H198     H      0.590280000000     0.003400000000     0.035640000000     0.0251372  
H199     H      0.695940000000     0.054560000000     0.053070000000     0.0541951  
H200     H      0.642750000000     0.029050000000     0.067090000000     0.0645988  
H201     H      0.686780000000     0.135480000000     0.088280000000     0.0570218  
H202     H      0.655580000000     0.119210000000     0.023930000000     0.117061   
H203     H      0.748540000000     0.080890000000     0.084540000000     0.0338332  
H204     H      0.229690000000     0.847110000000     0.436930000000     0.0368196  
H205     H      0.186720000000     0.891410000000     0.675240000000     0.0269874  
H206     H      0.156160000000     0.865290000000     0.529880000000     0.0521705  
H207     H      0.191270000000     0.897440000000     0.593170000000     0.0642247  
H208     H      0.236150000000     0.851090000000     0.519380000000     0.0593876  
H209     H      0.204630000000     0.816900000000     0.584360000000     0.119618   
H210     H      0.150370000000     0.861310000000     0.447790000000     0.0274609  
H211     H      0.111670000000     0.820230000000     0.176860000000     0.0275683  
H212     H      0.152670000000     0.775690000000     0.937660000000     0.0228302  
H213     H      0.184800000000     0.801910000000     0.083170000000     0.0560899  
H214     H      0.148580000000     0.769580000000     0.019780000000     0.0639932  
H215     H      0.105150000000     0.816560000000     0.094450000000     0.054784   
H216     H      0.137630000000     0.851530000000     0.029890000000     0.117977   
H217     H      0.190770000000     0.805720000000     0.165340000000     0.0387657  
H218     H      0.408340000000     0.998030000000     0.944680000000     0.0297122  
H219     H      0.258170000000     0.837130000000     0.865890000000     0.0246754  
H220     H      0.362390000000     0.888720000000     0.888560000000     0.0543112  
H221     H      0.310330000000     0.863350000000     0.897730000000     0.0646587  
H222     H      0.354580000000     0.971380000000     0.917450000000     0.0567865  
H223     H      0.320360000000     0.953320000000     0.859130000000     0.117387   
H224     H      0.414740000000     0.915170000000     0.920050000000     0.0342769  
H225     H      0.776440000000     0.627140000000     0.012490000000     0.0328969  
H226     H      0.824120000000     0.713860000000     0.773850000000     0.0225973  
H227     H      0.853770000000     0.717920000000     0.921390000000     0.0527468  
H228     H      0.820260000000     0.716690000000     0.856040000000     0.0635739  
H229     H      0.770620000000     0.625720000000     0.930190000000     0.0612472  
H230     H      0.801850000000     0.621040000000     0.867300000000     0.122714   
H231     H      0.858910000000     0.718750000000     0.003760000000     0.0276201  
H232     H      0.895450000000     0.708290000000     0.273960000000     0.0267262  
H233     H      0.847320000000     0.622550000000     0.513050000000     0.0289778  
H234     H      0.816820000000     0.619020000000     0.366100000000     0.0534839  
H235     H      0.850920000000     0.619580000000     0.430850000000     0.0644544  
H236     H      0.901510000000     0.709940000000     0.356290000000     0.0542395  
H237     H      0.870440000000     0.715590000000     0.419530000000     0.116364   
H238     H      0.811370000000     0.617990000000     0.283780000000     0.0284385  
H239     H      0.600600000000     0.513170000000     0.499530000000     0.0296789  
H240     H      0.749940000000     0.670530000000     0.584470000000     0.0263385  
H241     H      0.643330000000     0.619840000000     0.564910000000     0.0543061  
H242     H      0.697400000000     0.645770000000     0.552630000000     0.0650998  
H243     H      0.653870000000     0.539940000000     0.528410000000     0.057141   
H244     H      0.682850000000     0.554850000000     0.595000000000     0.119619   
H245     H      0.590610000000     0.592940000000     0.533120000000     0.0336356  
H246     H      0.082660000000     0.746010000000     0.748780000000     0.0336339  
H247     H      0.934230000000     0.756000000000     0.663460000000     0.0268939  
H248     H      0.019540000000     0.799130000000     0.754160000000     0.0531448  
H249     H      0.987930000000     0.782650000000     0.690430000000     0.0633926  
H250     H      0.029800000000     0.718990000000     0.718030000000     0.0579313  
H251     H      0.976610000000     0.692910000000     0.732590000000     0.117822   
H252     H      0.073190000000     0.826150000000     0.781840000000     0.0331202  
N1       N      0.790640000000     0.079220000000     0.679830000000    -0.255993   
N2       N      0.710930000000     0.922920000000     0.769860000000    -0.204297   
N3       N      0.884100000000     0.256910000000     0.606090000000    -0.255849   
N4       N      0.962460000000     0.412650000000     0.514090000000    -0.2034     
N5       N      0.123550000000     0.744900000000     0.344450000000    -0.256153   
N6       N      0.045140000000     0.589560000000     0.437660000000    -0.203128   
N7       N      0.547230000000     0.589140000000     0.936340000000    -0.25595    
N8       N      0.625050000000     0.746370000000     0.848250000000    -0.204351   
N9       N      0.217860000000     0.922140000000     0.268750000000    -0.255681   
N10      N      0.294180000000     0.078680000000     0.179590000000    -0.204945   
N11      N      0.375860000000     0.255780000000     0.103700000000    -0.255483   
N12      N      0.455320000000     0.412750000000     0.015760000000    -0.203943   
N13      N      0.664050000000     0.813610000000     0.679320000000    -0.255921   
N14      N      0.671500000000     0.817690000000     0.438430000000    -0.203419   
N15      N      0.667370000000     0.853810000000     0.179190000000    -0.254517   
N16      N      0.672020000000     0.855690000000     0.938340000000    -0.204815   
N17      N      0.712180000000     0.789920000000     0.270950000000    -0.255914   
N18      N      0.790930000000     0.711450000000     0.183380000000    -0.205245   
N19      N      0.626820000000     0.881710000000     0.346560000000    -0.255511   
N20      N      0.549500000000     0.960510000000     0.436670000000    -0.204107   
N21      N      0.005010000000     0.521310000000     0.605420000000    -0.255579   
N22      N      0.997550000000     0.518510000000     0.846240000000    -0.203858   
N23      N      0.002820000000     0.481430000000     0.346150000000    -0.255125   
N24      N      0.007090000000     0.484810000000     0.105010000000    -0.204161   
N25      N      0.958100000000     0.545870000000     0.014920000000    -0.255741   
N26      N      0.880320000000     0.624660000000     0.103810000000    -0.205125   
N27      N      0.340440000000     0.150850000000     0.771280000000    -0.254734   
N28      N      0.333690000000     0.147220000000     0.012140000000    -0.20371    
N29      N      0.331000000000     0.185160000000     0.512380000000    -0.254978   
N30      N      0.335910000000     0.186690000000     0.271250000000    -0.204345   
N31      N      0.379070000000     0.123240000000     0.602210000000    -0.254748   
N32      N      0.456580000000     0.044680000000     0.511800000000    -0.204517   
N33      N      0.126260000000     0.380340000000     0.848530000000    -0.2567     
N34      N      0.046550000000     0.457880000000     0.936020000000    -0.205153   
N35      N      0.212590000000     0.290370000000     0.768980000000    -0.256578   
N36      N      0.291850000000     0.212310000000     0.681820000000    -0.203858   
N37      N      0.482390000000     0.485550000000     0.605970000000    -0.255441   
N38      N      0.484030000000     0.479890000000     0.846850000000    -0.204176   
N39      N      0.519480000000     0.522860000000     0.105600000000    -0.254436   
N40      N      0.522780000000     0.521860000000     0.346730000000    -0.204405   
N41      N      0.858870000000     0.184250000000     0.013750000000    -0.255301   
N42      N      0.855790000000     0.187300000000     0.772760000000    -0.203482   
N43      N      0.814350000000     0.151510000000     0.272520000000    -0.255675   
N44      N      0.818770000000     0.148760000000     0.513390000000    -0.203468   
N45      N      0.150390000000     0.332030000000     0.438510000000    -0.255046   
N46      N      0.153190000000     0.340240000000     0.679270000000    -0.203487   
N47      N      0.189730000000     0.335240000000     0.179020000000    -0.253852   
N48      N      0.185900000000     0.330240000000     0.938150000000    -0.203471   
N49      N      0.081790000000     0.289560000000     0.270450000000    -0.254753   
N50      N      0.924290000000     0.211990000000     0.183870000000    -0.203592   
N51      N      0.258850000000     0.377790000000     0.346650000000    -0.254455   
N52      N      0.414740000000     0.457090000000     0.437840000000    -0.203804   
N53      N      0.525290000000     0.006610000000     0.844650000000    -0.254549   
N54      N      0.521860000000     0.001620000000     0.603720000000    -0.204746   
N55      N      0.484160000000     0.003350000000     0.344480000000    -0.255415   
N56      N      0.482120000000     0.998260000000     0.103400000000    -0.204212   
N57      N      0.591940000000     0.046140000000     0.013460000000    -0.255066   
N58      N      0.748450000000     0.123420000000     0.102690000000    -0.203343   
N59      N      0.192180000000     0.850390000000     0.677290000000    -0.254532   
N60      N      0.189190000000     0.853290000000     0.436290000000    -0.203871   
N61      N      0.148440000000     0.817430000000     0.936280000000    -0.255293   
N62      N      0.152080000000     0.813890000000     0.177160000000    -0.203178   
N63      N      0.258320000000     0.879600000000     0.846560000000    -0.254906   
N64      N      0.415500000000     0.958600000000     0.934470000000    -0.203897   
N65      N      0.815990000000     0.666360000000     0.773200000000    -0.254121   
N66      N      0.818530000000     0.672710000000     0.014180000000    -0.204484   
N67      N      0.855940000000     0.670230000000     0.513690000000    -0.254843   
N68      N      0.852580000000     0.663370000000     0.272810000000    -0.205066   
N69      N      0.747330000000     0.627250000000     0.605980000000    -0.254424   
N70      N      0.591490000000     0.550890000000     0.514570000000    -0.203807   
N71      N      0.924600000000     0.709330000000     0.681090000000    -0.254149   
N72      N      0.081990000000     0.788180000000     0.767260000000    -0.203439   
O1       O      0.823030000000     0.643220000000     0.709190000000    -0.505797   
O2       O      0.845040000000     0.646200000000     0.584310000000    -0.556133   
O3       O      0.877340000000     0.664620000000     0.663820000000    -0.513571   
O4       O      0.790870000000     0.624880000000     0.630380000000    -0.513515   
O5       O      0.794580000000     0.671990000000     0.623000000000    -0.554084   
O6       O      0.881130000000     0.711780000000     0.656630000000    -0.554221   
O7       O      0.848990000000     0.693450000000     0.577700000000    -0.516865   
O8       O      0.826870000000     0.690420000000     0.702590000000    -0.558538   
O9       O      0.158640000000     0.802710000000     0.866510000000    -0.561751   
O10      O      0.183970000000     0.820790000000     0.742520000000    -0.514855   
O11      O      0.214010000000     0.833940000000     0.823700000000    -0.555347   
O12      O      0.128400000000     0.789440000000     0.785440000000    -0.550385   
O13      O      0.125820000000     0.833540000000     0.792260000000    -0.550543   
O14      O      0.212450000000     0.878730000000     0.825660000000    -0.512711   
O15      O      0.180400000000     0.864410000000     0.746470000000    -0.555038   
O16      O      0.157730000000     0.847720000000     0.871530000000    -0.514572   
O17      O      0.515390000000     0.982360000000     0.915090000000    -0.515643   
O18      O      0.490210000000     0.976260000000     0.039010000000    -0.555431   
O19      O      0.460070000000     0.958090000000     0.958040000000    -0.550955   
O20      O      0.545710000000     0.000580000000     0.995950000000    -0.556811   
O21      O      0.547750000000     0.046890000000     0.987690000000    -0.514696   
O22      O      0.460980000000     0.004140000000     0.954620000000    -0.55242    
O23      O      0.493250000000     0.023220000000     0.033630000000    -0.552233   
O24      O      0.515690000000     0.027920000000     0.908620000000    -0.552931   
O25      O      0.157530000000     0.308750000000     0.374630000000    -0.516568   
O26      O      0.181040000000     0.312380000000     0.250360000000    -0.509537   
O27      O      0.212470000000     0.332020000000     0.330350000000    -0.554996   
O28      O      0.126410000000     0.289220000000     0.294570000000    -0.508528   
O29      O      0.127470000000     0.335250000000     0.289580000000    -0.556947   
O30      O      0.214570000000     0.378250000000     0.320700000000    -0.515286   
O31      O      0.181600000000     0.357990000000     0.242520000000    -0.553912   
O32      O      0.160690000000     0.355640000000     0.367740000000    -0.557225   
O33      O      0.824220000000     0.136460000000     0.202780000000    -0.560843   
O34      O      0.850060000000     0.154440000000     0.078940000000    -0.515808   
O35      O      0.879740000000     0.166900000000     0.160350000000    -0.55077    
O36      O      0.794320000000     0.123810000000     0.121480000000    -0.551036   
O37      O      0.792560000000     0.168350000000     0.128200000000    -0.548193   
O38      O      0.879120000000     0.212220000000     0.162430000000    -0.548842   
O39      O      0.847400000000     0.198570000000     0.082920000000    -0.560713   
O40      O      0.824120000000     0.181890000000     0.207780000000    -0.515792   
O41      O      0.516040000000     0.491890000000     0.410710000000    -0.556239   
O42      O      0.493540000000     0.472620000000     0.535420000000    -0.558409   
O43      O      0.461580000000     0.459170000000     0.455700000000    -0.553356   
O44      O      0.547940000000     0.505310000000     0.489770000000    -0.55507    
O45      O      0.544600000000     0.548970000000     0.497110000000    -0.548344   
O46      O      0.458110000000     0.502760000000     0.463040000000    -0.548151   
O47      O      0.490030000000     0.516160000000     0.542160000000    -0.515692   
O48      O      0.512440000000     0.535450000000     0.417340000000    -0.552837   
O49      O      0.183380000000     0.361480000000     0.743870000000    -0.551566   
O50      O      0.200700000000     0.355050000000     0.868490000000    -0.549596   
O51      O      0.213310000000     0.336250000000     0.788970000000    -0.560702   
O52      O      0.170930000000     0.380140000000     0.824230000000    -0.518335   
O53      O      0.125600000000     0.334480000000     0.828710000000    -0.561325   
O54      O      0.167930000000     0.290610000000     0.793190000000    -0.518072   
O55      O      0.155580000000     0.309190000000     0.873620000000    -0.551819   
O56      O      0.138150000000     0.315740000000     0.749100000000    -0.549522   
O57      O      0.361400000000     0.181570000000     0.707000000000    -0.512346   
O58      O      0.356000000000     0.199080000000     0.582230000000    -0.515755   
O59      O      0.337320000000     0.212390000000     0.661370000000    -0.547508   
O60      O      0.379910000000     0.168290000000     0.627770000000    -0.507046   
O61      O      0.333650000000     0.123960000000     0.620260000000    -0.560005   
O62      O      0.291330000000     0.167250000000     0.658150000000    -0.556078   
O63      O      0.309270000000     0.155090000000     0.577070000000    -0.558682   
O64      O      0.315790000000     0.136370000000     0.701210000000    -0.557882   
O65      O      0.028620000000     0.514850000000     0.040390000000    -0.554865   
O66      O      0.021890000000     0.533370000000     0.916350000000    -0.553256   
O67      O      0.003750000000     0.545530000000     0.997210000000    -0.560565   
O68      O      0.046700000000     0.502820000000     0.959400000000    -0.556504   
O69      O      0.000910000000     0.457450000000     0.956490000000    -0.553531   
O70      O      0.957670000000     0.501020000000     0.989440000000    -0.515302   
O71      O      0.976540000000     0.487810000000     0.910380000000    -0.547939   
O72      O      0.981900000000     0.470680000000     0.035460000000    -0.5535     
O73      O      0.690820000000     0.867580000000     0.250170000000    -0.516456   
O74      O      0.694710000000     0.847820000000     0.374470000000    -0.555533   
O75      O      0.713400000000     0.835410000000     0.294280000000    -0.557114   
O76      O      0.672040000000     0.880110000000     0.330220000000    -0.557937   
O77      O      0.625440000000     0.836410000000     0.321110000000    -0.517231   
O78      O      0.666960000000     0.790910000000     0.289830000000    -0.518183   
O79      O      0.647460000000     0.804470000000     0.368040000000    -0.546361   
O80      O      0.644830000000     0.822960000000     0.242820000000    -0.55335    
O81      O      0.867140000000     0.687870000000     0.202780000000    -0.556083   
O82      O      0.848430000000     0.694460000000     0.078820000000    -0.555004   
O83      O      0.836100000000     0.712200000000     0.159900000000    -0.556854   
O84      O      0.879590000000     0.670090000000     0.121840000000    -0.556804   
O85      O      0.835370000000     0.623650000000     0.129460000000    -0.553816   
O86      O      0.791070000000     0.666080000000     0.162820000000    -0.552244   
O87      O      0.804560000000     0.647480000000     0.083720000000    -0.553269   
O88      O      0.821940000000     0.642150000000     0.208680000000    -0.554839   
O89      O      0.514790000000     0.026960000000     0.407880000000    -0.560809   
O90      O      0.534720000000     0.025130000000     0.532770000000    -0.553553   
O91      O      0.547700000000     0.005610000000     0.453490000000    -0.554581   
O92      O      0.501920000000     0.046450000000     0.486510000000    -0.555207   
O93      O      0.458380000000     0.999560000000     0.495160000000    -0.551238   
O94      O      0.504090000000     0.958710000000     0.461680000000    -0.550047   
O95      O      0.491290000000     0.978040000000     0.540430000000    -0.557023   
O96      O      0.471230000000     0.980100000000     0.415760000000    -0.514929   
O97      O      0.310140000000     0.154090000000     0.075600000000    -0.549374   
O98      O      0.312320000000     0.176050000000     0.200400000000    -0.550512   
O99      O      0.331140000000     0.208450000000     0.120880000000    -0.514355   
O100     O      0.291520000000     0.121880000000     0.154450000000    -0.556158   
O101     O      0.338730000000     0.125910000000     0.162470000000    -0.554945   
O102     O      0.378280000000     0.212410000000     0.128760000000    -0.560399   
O103     O      0.359650000000     0.180260000000     0.207670000000    -0.555977   
O104     O      0.357410000000     0.158160000000     0.082910000000    -0.55317    
O105     O      0.489250000000     0.514860000000     0.041220000000    -0.557739   
O106     O      0.469810000000     0.489910000000     0.917120000000    -0.554277   
O107     O      0.457010000000     0.459440000000     0.998020000000    -0.555314   
O108     O      0.501800000000     0.545100000000     0.960200000000    -0.561195   
O109     O      0.546270000000     0.543080000000     0.956670000000    -0.512426   
O110     O      0.500710000000     0.456310000000     0.990100000000    -0.549787   
O111     O      0.514450000000     0.488370000000     0.910910000000    -0.553794   
O112     O      0.532550000000     0.510910000000     0.035720000000    -0.510292   
O113     O      0.139120000000     0.824420000000     0.248030000000    -0.553646   
O114     O      0.158870000000     0.846460000000     0.372750000000    -0.556582   
O115     O      0.172230000000     0.878670000000     0.293900000000    -0.560482   
O116     O      0.125810000000     0.792060000000     0.327500000000    -0.559294   
O117     O      0.169180000000     0.788440000000     0.319420000000    -0.518657   
O118     O      0.215560000000     0.874970000000     0.286030000000    -0.516978   
O119     O      0.202200000000     0.842620000000     0.365490000000    -0.548071   
O120     O      0.182490000000     0.820660000000     0.240630000000    -0.544022   
O121     O      0.981390000000     0.510300000000     0.534510000000    -0.558803   
O122     O      0.979210000000     0.488170000000     0.409750000000    -0.561642   
O123     O      0.960260000000     0.456020000000     0.488670000000    -0.554288   
O124     O      0.000340000000     0.542560000000     0.454950000000    -0.552173   
O125     O      0.047370000000     0.546180000000     0.463000000000    -0.544712   
O126     O      0.007290000000     0.459660000000     0.496910000000    -0.547156   
O127     O      0.026260000000     0.491880000000     0.417300000000    -0.516283   
O128     O      0.028500000000     0.514160000000     0.541930000000    -0.518686   
O129     O      0.825410000000     0.180530000000     0.709310000000    -0.550947   
O130     O      0.805790000000     0.159040000000     0.584420000000    -0.55186    
O131     O      0.792670000000     0.126340000000     0.663510000000    -0.560687   
O132     O      0.838550000000     0.213090000000     0.630850000000    -0.517472   
O133     O      0.882120000000     0.209840000000     0.622610000000    -0.559723   
O134     O      0.836220000000     0.123060000000     0.655180000000    -0.516822   
O135     O      0.849340000000     0.155640000000     0.576720000000    -0.549578   
O136     O      0.868950000000     0.177090000000     0.701750000000    -0.549968   
O137     O      0.641870000000     0.821220000000     0.744080000000    -0.516415   
O138     O      0.647690000000     0.845820000000     0.868220000000    -0.556169   
O139     O      0.665620000000     0.876550000000     0.787580000000    -0.551471   
O140     O      0.623990000000     0.790710000000     0.824830000000    -0.551471   
O141     O      0.670250000000     0.792130000000     0.828060000000    -0.552427   
O142     O      0.712140000000     0.878990000000     0.795310000000    -0.554177   
O143     O      0.693600000000     0.846750000000     0.874250000000    -0.555208   
O144     O      0.688890000000     0.824600000000     0.749180000000    -0.560746   
V1       V      0.833960000000     0.642890000000     0.647150000000     1.45421    
V2       V      0.838010000000     0.693770000000     0.639750000000     1.4056     
V3       V      0.171330000000     0.809960000000     0.804330000000     1.41645    
V4       V      0.169020000000     0.857870000000     0.809180000000     1.42911    
V5       V      0.502790000000     0.977500000000     0.977280000000     1.4204     
V6       V      0.504460000000     0.027380000000     0.970890000000     1.41226    
V7       V      0.169320000000     0.308780000000     0.312820000000     1.45599    
V8       V      0.171130000000     0.358620000000     0.304820000000     1.41166    
V9       V      0.837120000000     0.143630000000     0.140670000000     1.42226    
V10      V      0.835760000000     0.192050000000     0.145530000000     1.41113    
V11      V      0.504890000000     0.480520000000     0.472680000000     1.40573    
V12      V      0.501210000000     0.527590000000     0.480160000000     1.41692    
V13      V      0.193860000000     0.360040000000     0.806100000000     1.41887    
V14      V      0.145030000000     0.310700000000     0.811460000000     1.42143    
V15      V      0.360480000000     0.192110000000     0.644830000000     1.454      
V16      V      0.310680000000     0.143890000000     0.638930000000     1.39666    
V17      V      0.027050000000     0.525920000000     0.978590000000     1.40521    
V18      V      0.977430000000     0.477450000000     0.972710000000     1.41421    
V19      V      0.694580000000     0.859480000000     0.312590000000     1.41828    
V20      V      0.644330000000     0.811930000000     0.305150000000     1.43306    
V21      V      0.859580000000     0.692980000000     0.140590000000     1.40378    
V22      V      0.811450000000     0.643000000000     0.146410000000     1.40529    
V23      V      0.526530000000     0.027880000000     0.469880000000     1.39938    
V24      V      0.479500000000     0.977270000000     0.478530000000     1.42502    
V25      V      0.309430000000     0.165000000000     0.137570000000     1.42324    
V26      V      0.360380000000     0.169310000000     0.145710000000     1.4001     
V27      V      0.477710000000     0.502420000000     0.979410000000     1.39953    
V28      V      0.525240000000     0.499560000000     0.973110000000     1.43517    
V29      V      0.147270000000     0.835520000000     0.310810000000     1.39459    
V30      V      0.194090000000     0.831560000000     0.302640000000     1.44214    
V31      V      0.978440000000     0.499140000000     0.471710000000     1.39544    
V32      V      0.029200000000     0.503080000000     0.480050000000     1.44001    
V33      V      0.813860000000     0.169850000000     0.647290000000     1.41909    
V34      V      0.860900000000     0.166310000000     0.638800000000     1.41614    
V35      V      0.642960000000     0.833500000000     0.805920000000     1.4257     
V36      V      0.693060000000     0.835690000000     0.811950000000     1.39726    


