data_structure

_audit_creation_method RASPA-1.0
_audit_creation_date 2023-5-23
_audit_author_name 'Poobodin Mano'

_cell_length_a    44.7245
_cell_length_b    44.7228
_cell_length_c    29.8911
_cell_angle_alpha 89.9998
_cell_angle_beta  90
_cell_angle_gamma 90
_cell_volume      59788.3

_symmetry_cell_setting          triclinic
_symmetry_space_group_name_Hall 'P 1'
_symmetry_space_group_name_H-M  'P 1'
_symmetry_Int_Tables_number     1

_symmetry_equiv_pos_as_xyz 'x,y,z'

loop_
_atom_site_label
_atom_site_type_symbol
_atom_site_fract_x
_atom_site_fract_y
_atom_site_fract_z
_atom_site_charge
C1       C      0.274890000000     0.000230000000     0.999790000000     0.475895   
C2       C      0.388390000000     0.999990000000     0.999560000000     0.481148   
C3       C      0.331660000000     0.000240000000     0.914780000000     0.476474   
C4       C      0.331780000000     0.999940000000     0.084590000000     0.481088   
C5       C      0.277660000000     0.999930000000     0.499710000000     0.481199   
C6       C      0.391150000000     0.999910000000     0.499630000000     0.481272   
C7       C      0.334320000000     0.999820000000     0.414780000000     0.480939   
C8       C      0.334340000000     0.000060000000     0.584600000000     0.47636    
C9       C      0.000170000000     0.724080000000     0.999090000000     0.476632   
C10      C      0.001130000000     0.610590000000     0.998520000000     0.477302   
C11      C      0.000590000000     0.667530000000     0.913940000000     0.477669   
C12      C      0.000550000000     0.667140000000     0.083750000000     0.477362   
C13      C      0.000070000000     0.724080000000     0.498580000000     0.477711   
C14      C      0.999140000000     0.610590000000     0.499180000000     0.480074   
C15      C      0.999700000000     0.667140000000     0.413930000000     0.480266   
C16      C      0.999660000000     0.667540000000     0.583740000000     0.479959   
C17      C      0.722540000000     0.999940000000     0.998080000000     0.481009   
C18      C      0.609060000000     0.999910000000     0.998160000000     0.481065   
C19      C      0.665870000000     0.000060000000     0.913200000000     0.476402   
C20      C      0.665890000000     0.999820000000     0.083010000000     0.480847   
C21      C      0.725310000000     0.000240000000     0.498010000000     0.476076   
C22      C      0.611810000000     0.999990000000     0.498230000000     0.481006   
C23      C      0.668430000000     0.999940000000     0.413200000000     0.481084   
C24      C      0.668550000000     0.000250000000     0.583010000000     0.476499   
C25      C      0.055440000000     0.000580000000     0.999460000000     0.475989   
C26      C      0.941930000000     0.999950000000     0.998940000000     0.48055    
C27      C      0.998230000000     0.057020000000     0.999230000000     0.478317   
C28      C      0.999010000000     0.943510000000     0.999180000000     0.479486   
C29      C      0.058270000000     0.999940000000     0.498860000000     0.480437   
C30      C      0.944760000000     0.000580000000     0.498350000000     0.475806   
C31      C      0.001980000000     0.057020000000     0.498610000000     0.478333   
C32      C      0.001200000000     0.943510000000     0.498580000000     0.476956   
C33      C      0.998950000000     0.276400000000     0.998900000000     0.479816   
C34      C      0.001030000000     0.389910000000     0.999160000000     0.477781   
C35      C      0.000000000000     0.333230000000     0.914050000000     0.478147   
C36      C      0.000050000000     0.333080000000     0.083850000000     0.477952   
C37      C      0.001300000000     0.276400000000     0.499050000000     0.477821   
C38      C      0.999250000000     0.389900000000     0.498760000000     0.480652   
C39      C      0.000220000000     0.333070000000     0.414080000000     0.477973   
C40      C      0.000260000000     0.333240000000     0.583890000000     0.47811    
C41      C      0.974060000000     0.340080000000     0.798210000000    -0.0883751  
C42      C      0.000110000000     0.333320000000     0.774000000000     0.0334367  
C43      C      0.026110000000     0.326530000000     0.798280000000    -0.0893975  
C44      C      0.025770000000     0.327050000000     0.844990000000     0.073879   
C45      C      0.974310000000     0.339500000000     0.844920000000     0.0747277  
C46      C      0.000150000000     0.333330000000     0.723940000000     0.0334018  
C47      C      0.974150000000     0.326540000000     0.699650000000    -0.0884127  
C48      C      0.974480000000     0.327060000000     0.652950000000     0.0746747  
C49      C      0.025950000000     0.339500000000     0.653020000000     0.0738634  
C50      C      0.026200000000     0.340080000000     0.699730000000    -0.0892701  
C51      C      0.026230000000     0.326620000000     0.199590000000    -0.0892598  
C52      C      0.000120000000     0.333010000000     0.223910000000     0.0334615  
C53      C      0.973990000000     0.339410000000     0.199660000000    -0.0883604  
C54      C      0.974250000000     0.338820000000     0.152950000000     0.0749613  
C55      C      0.025920000000     0.327260000000     0.152880000000     0.0739857  
C56      C      0.000150000000     0.333010000000     0.274020000000     0.0334562  
C57      C      0.974040000000     0.326630000000     0.298350000000    -0.088457   
C58      C      0.974350000000     0.327260000000     0.345050000000     0.0749931  
C59      C      0.026020000000     0.338810000000     0.344990000000     0.0739735  
C60      C      0.026280000000     0.339410000000     0.298280000000    -0.0892083  
C61      C      0.008090000000     0.134410000000     0.538070000000    -0.0908612  
C62      C      0.002920000000     0.150250000000     0.498570000000     0.0335888  
C63      C      0.997550000000     0.134480000000     0.459070000000    -0.0899919  
C64      C      0.997700000000     0.103260000000     0.459550000000     0.0745701  
C65      C      0.007390000000     0.103180000000     0.537600000000     0.0734667  
C66      C      0.002620000000     0.183180000000     0.498700000000     0.0336073  
C67      C      0.975930000000     0.198650000000     0.491600000000    -0.0900513  
C68      C      0.975850000000     0.229860000000     0.492340000000     0.074722   
C69      C      0.028180000000     0.230560000000     0.505420000000     0.0735348  
C70      C      0.028910000000     0.199320000000     0.505930000000    -0.0906329  
C71      C      0.992130000000     0.134420000000     0.959820000000    -0.0910863  
C72      C      0.997310000000     0.150250000000     0.999330000000     0.035254   
C73      C      0.002670000000     0.134470000000     0.038820000000    -0.0918569  
C74      C      0.002510000000     0.103240000000     0.038330000000     0.0732126  
C75      C      0.992830000000     0.103190000000     0.960270000000     0.0740257  
C76      C      0.997610000000     0.183180000000     0.999220000000     0.0353397  
C77      C      0.024300000000     0.198650000000     0.006330000000    -0.091923   
C78      C      0.024390000000     0.229850000000     0.005600000000     0.0736907  
C79      C      0.972060000000     0.230570000000     0.992530000000     0.0741699  
C80      C      0.971320000000     0.199330000000     0.992000000000    -0.0910196  
C81      C      0.867390000000     0.995030000000     0.458670000000    -0.0888985  
C82      C      0.851520000000     0.000580000000     0.498030000000     0.0327913  
C83      C      0.867280000000     0.006200000000     0.537480000000    -0.0906321  
C84      C      0.898510000000     0.005790000000     0.537110000000     0.0732939  
C85      C      0.898620000000     0.995520000000     0.459220000000     0.0750036  
C86      C      0.818560000000     0.000490000000     0.497960000000     0.0327447  
C87      C      0.802670000000     0.026760000000     0.506520000000    -0.0905621  
C88      C      0.771440000000     0.026360000000     0.505850000000     0.0733543  
C89      C      0.771580000000     0.974360000000     0.490080000000     0.0749361  
C90      C      0.802810000000     0.974150000000     0.489400000000    -0.0888044  
C91      C      0.674580000000     0.974290000000     0.698960000000    -0.087442   
C92      C      0.667470000000     0.000270000000     0.723080000000     0.0325405  
C93      C      0.660880000000     0.026300000000     0.698700000000    -0.0891372  
C94      C      0.661840000000     0.026010000000     0.652000000000     0.0734819  
C95      C      0.674480000000     0.974590000000     0.652240000000     0.075046   
C96      C      0.666950000000     0.000240000000     0.773130000000     0.0325254  
C97      C      0.659920000000     0.974190000000     0.797180000000    -0.0874467  
C98      C      0.660030000000     0.974440000000     0.843910000000     0.075094   
C99      C      0.672530000000     0.025890000000     0.844280000000     0.0734336  
C100     C      0.673490000000     0.026240000000     0.797580000000    -0.0891581  
C101     C      0.660850000000     0.973770000000     0.297560000000    -0.089717   
C102     C      0.667380000000     0.999790000000     0.273140000000     0.0361238  
C103     C      0.674390000000     0.025820000000     0.297210000000    -0.0913752  
C104     C      0.674260000000     0.025570000000     0.343930000000     0.0729606  
C105     C      0.661790000000     0.974110000000     0.344270000000     0.0745857  
C106     C      0.666890000000     0.999770000000     0.223080000000     0.0360638  
C107     C      0.673490000000     0.973750000000     0.198690000000    -0.0897106  
C108     C      0.672570000000     0.974050000000     0.151990000000     0.0745395  
C109     C      0.659970000000     0.025480000000     0.152240000000     0.0729381  
C110     C      0.659830000000     0.025770000000     0.198960000000    -0.0912997  
C111     C      0.864620000000     0.994250000000     0.959150000000    -0.0911612  
C112     C      0.848710000000     0.999860000000     0.998470000000     0.0361839  
C113     C      0.864430000000     0.005440000000     0.037960000000    -0.0927714  
C114     C      0.895660000000     0.004990000000     0.037660000000     0.0730137  
C115     C      0.895840000000     0.994710000000     0.959770000000     0.0745294  
C116     C      0.815770000000     0.999890000000     0.998300000000     0.0362291  
C117     C      0.799960000000     0.026180000000     0.007010000000    -0.092649   
C118     C      0.768740000000     0.025900000000     0.006240000000     0.0729854  
C119     C      0.768730000000     0.973950000000     0.990050000000     0.0745549  
C120     C      0.799950000000     0.973630000000     0.989460000000    -0.0912443  
C121     C      0.972640000000     0.533330000000     0.488900000000    -0.0894199  
C122     C      0.998510000000     0.516980000000     0.499360000000     0.0353552  
C123     C      0.024520000000     0.533060000000     0.510110000000    -0.090433   
C124     C      0.024420000000     0.564270000000     0.509270000000     0.0736292  
C125     C      0.973110000000     0.564560000000     0.489720000000     0.0743822  
C126     C      0.998490000000     0.483520000000     0.498880000000     0.0353764  
C127     C      0.972410000000     0.467140000000     0.508160000000    -0.0893015  
C128     C      0.972890000000     0.435890000000     0.507180000000     0.0743475  
C129     C      0.024550000000     0.436280000000     0.489800000000     0.0738167  
C130     C      0.024670000000     0.467470000000     0.489130000000    -0.0905659  
C131     C      0.974290000000     0.801670000000     0.507230000000    -0.08988    
C132     C      0.000680000000     0.817320000000     0.498530000000     0.0336481  
C133     C      0.026860000000     0.801330000000     0.489810000000    -0.0907119  
C134     C      0.026360000000     0.770110000000     0.490490000000     0.0736466  
C135     C      0.974400000000     0.770450000000     0.506540000000     0.0745798  
C136     C      0.000870000000     0.850270000000     0.498560000000     0.0336147  
C137     C      0.006620000000     0.866080000000     0.459190000000    -0.0907907  
C138     C      0.006270000000     0.897300000000     0.459660000000     0.0736994  
C139     C      0.995790000000     0.897330000000     0.537480000000     0.0745843  
C140     C      0.995230000000     0.866110000000     0.537930000000    -0.089805   
C141     C      0.975770000000     0.533050000000     0.987660000000    -0.088317   
C142     C      0.001770000000     0.516980000000     0.998420000000     0.0332683  
C143     C      0.027650000000     0.533340000000     0.008860000000    -0.0889008  
C144     C      0.027170000000     0.564570000000     0.008000000000     0.0738677  
C145     C      0.975860000000     0.564260000000     0.988470000000     0.0748152  
C146     C      0.001790000000     0.483520000000     0.998950000000     0.0333076  
C147     C      0.975620000000     0.467480000000     0.008730000000    -0.0883373  
C148     C      0.975730000000     0.436290000000     0.008090000000     0.0752084  
C149     C      0.027390000000     0.435880000000     0.990700000000     0.0735903  
C150     C      0.027870000000     0.467130000000     0.989690000000    -0.088902   
C151     C      0.026330000000     0.660900000000     0.797950000000    -0.0891443  
C152     C      0.000220000000     0.667650000000     0.773870000000     0.0334395  
C153     C      0.974280000000     0.674410000000     0.798310000000    -0.0883952  
C154     C      0.974710000000     0.673860000000     0.845000000000     0.0745969  
C155     C      0.026190000000     0.661440000000     0.844680000000     0.0736828  
C156     C      0.000040000000     0.667650000000     0.723800000000     0.0330883  
C157     C      0.025980000000     0.674420000000     0.699380000000    -0.0889475  
C158     C      0.025540000000     0.673870000000     0.652670000000     0.0729307  
C159     C      0.974070000000     0.661430000000     0.653000000000     0.0736486  
C160     C      0.973930000000     0.660900000000     0.699730000000    -0.0878339  
C161     C      0.973980000000     0.673900000000     0.297950000000    -0.0879319  
C162     C      0.000050000000     0.667020000000     0.273870000000     0.0330671  
C163     C      0.025970000000     0.660140000000     0.298270000000    -0.0888936  
C164     C      0.025550000000     0.660680000000     0.344980000000     0.0729339  
C165     C      0.974140000000     0.673390000000     0.344670000000     0.0736524  
C166     C      0.000210000000     0.667030000000     0.223810000000     0.0335276  
C167     C      0.974290000000     0.660140000000     0.199410000000    -0.0884429  
C168     C      0.974710000000     0.660680000000     0.152700000000     0.0746711  
C169     C      0.026110000000     0.673400000000     0.153010000000     0.073724   
C170     C      0.026280000000     0.673910000000     0.199730000000    -0.0893508  
C171     C      0.973360000000     0.801330000000     0.007870000000    -0.0907603  
C172     C      0.999540000000     0.817320000000     0.999150000000     0.0353259  
C173     C      0.025930000000     0.801680000000     0.990450000000    -0.0918278  
C174     C      0.025830000000     0.770450000000     0.991130000000     0.0731982  
C175     C      0.973870000000     0.770100000000     0.007180000000     0.074294   
C176     C      0.999340000000     0.850270000000     0.999150000000     0.0353673  
C177     C      0.993590000000     0.866060000000     0.038520000000    -0.0908586  
C178     C      0.993930000000     0.897290000000     0.038070000000     0.0744715  
C179     C      0.004420000000     0.897340000000     0.960250000000     0.073316   
C180     C      0.004980000000     0.866120000000     0.959780000000    -0.0919246  
C181     C      0.468520000000     0.973860000000     0.489120000000    -0.0897176  
C182     C      0.484750000000     0.999890000000     0.499110000000     0.0362378  
C183     C      0.468580000000     0.025920000000     0.509340000000    -0.0913641  
C184     C      0.437360000000     0.025630000000     0.508740000000     0.0730504  
C185     C      0.437300000000     0.974160000000     0.490120000000     0.0747141  
C186     C      0.518210000000     0.999900000000     0.498830000000     0.0362181  
C187     C      0.534460000000     0.973920000000     0.509000000000    -0.0896747  
C188     C      0.565680000000     0.974230000000     0.507970000000     0.0746612  
C189     C      0.565580000000     0.025640000000     0.488960000000     0.0730445  
C190     C      0.534360000000     0.025910000000     0.488390000000    -0.0913446  
C191     C      0.200250000000     0.973620000000     0.508340000000    -0.0913225  
C192     C      0.184440000000     0.999890000000     0.499500000000     0.0364357  
C193     C      0.200250000000     0.026170000000     0.490780000000    -0.0929114  
C194     C      0.231470000000     0.025890000000     0.491560000000     0.0729899  
C195     C      0.231480000000     0.973950000000     0.507750000000     0.0746051  
C196     C      0.151490000000     0.999850000000     0.499330000000     0.0363737  
C197     C      0.135770000000     0.005450000000     0.459850000000    -0.0929772  
C198     C      0.104550000000     0.005000000000     0.460140000000     0.072746   
C199     C      0.104370000000     0.994690000000     0.538020000000     0.0745535  
C200     C      0.135590000000     0.994240000000     0.538640000000    -0.0912432  
C201     C      0.531690000000     0.973860000000     0.008680000000    -0.0894912  
C202     C      0.515450000000     0.999890000000     0.998690000000     0.0360103  
C203     C      0.531630000000     0.025920000000     0.988450000000    -0.0912862  
C204     C      0.562850000000     0.025630000000     0.989050000000     0.072977   
C205     C      0.562900000000     0.974160000000     0.007680000000     0.0748269  
C206     C      0.482000000000     0.999900000000     0.998960000000     0.0359409  
C207     C      0.465740000000     0.973910000000     0.988790000000    -0.0896077  
C208     C      0.434520000000     0.974230000000     0.989820000000     0.0745944  
C209     C      0.434620000000     0.025640000000     0.008830000000     0.0731379  
C210     C      0.465840000000     0.025900000000     0.009410000000    -0.0909949  
C211     C      0.340290000000     0.974190000000     0.700610000000    -0.0874136  
C212     C      0.333260000000     0.000230000000     0.724660000000     0.0325095  
C213     C      0.326720000000     0.026230000000     0.700220000000    -0.0890734  
C214     C      0.327670000000     0.025890000000     0.653520000000     0.073366   
C215     C      0.340170000000     0.974430000000     0.653880000000     0.075046   
C216     C      0.332730000000     0.000270000000     0.774720000000     0.032576   
C217     C      0.339330000000     0.026290000000     0.799090000000    -0.0890543  
C218     C      0.338370000000     0.026010000000     0.845800000000     0.0733633  
C219     C      0.325730000000     0.974590000000     0.845550000000     0.0751711  
C220     C      0.325620000000     0.974280000000     0.798830000000    -0.0875991  
C221     C      0.325810000000     0.025820000000     0.200590000000    -0.0912885  
C222     C      0.332820000000     0.999780000000     0.224660000000     0.0360709  
C223     C      0.339360000000     0.973770000000     0.200230000000    -0.089718   
C224     C      0.338420000000     0.974100000000     0.153530000000     0.074587   
C225     C      0.325950000000     0.025570000000     0.153860000000     0.0728245  
C226     C      0.333310000000     0.999770000000     0.274720000000     0.0361087  
C227     C      0.340380000000     0.025770000000     0.298830000000    -0.0913982  
C228     C      0.340230000000     0.025480000000     0.345550000000     0.0729514  
C229     C      0.327640000000     0.974050000000     0.345800000000     0.0745352  
C230     C      0.326710000000     0.973750000000     0.299100000000    -0.0897064  
C231     C      0.132930000000     0.006210000000     0.960330000000    -0.0906164  
C232     C      0.148690000000     0.000580000000     0.999770000000     0.0325205  
C233     C      0.132810000000     0.995010000000     0.039120000000    -0.0886798  
C234     C      0.101580000000     0.995500000000     0.038570000000     0.0750185  
C235     C      0.101700000000     0.005800000000     0.960690000000     0.0730808  
C236     C      0.181640000000     0.000490000000     0.999840000000     0.0325246  
C237     C      0.197390000000     0.974140000000     0.008410000000    -0.0887153  
C238     C      0.228620000000     0.974360000000     0.007720000000     0.0751291  
C239     C      0.228760000000     0.026360000000     0.991940000000     0.0731889  
C240     C      0.197540000000     0.026750000000     0.991270000000    -0.0904824  
H1       H      0.046680000000     0.320400000000     0.781600000000     0.0486585  
H2       H      0.046420000000     0.321660000000     0.862210000000     0.0217771  
H3       H      0.953640000000     0.344860000000     0.862100000000     0.0217547  
H4       H      0.953510000000     0.346240000000     0.781460000000     0.0487037  
H5       H      0.953570000000     0.320410000000     0.716330000000     0.0486309  
H6       H      0.953840000000     0.321680000000     0.635720000000     0.021802   
H7       H      0.046630000000     0.344860000000     0.635840000000     0.0217759  
H8       H      0.046750000000     0.346230000000     0.716470000000     0.0487042  
H9       H      0.953340000000     0.345310000000     0.216310000000     0.0486553  
H10      H      0.953500000000     0.343880000000     0.135760000000     0.0215032  
H11      H      0.046640000000     0.322210000000     0.135630000000     0.0215001  
H12      H      0.046890000000     0.320710000000     0.216190000000     0.0485599  
H13      H      0.953380000000     0.320720000000     0.281750000000     0.0485906  
H14      H      0.953620000000     0.322220000000     0.362310000000     0.0214341  
H15      H      0.046760000000     0.343860000000     0.362180000000     0.0215162  
H16      H      0.046930000000     0.345300000000     0.281630000000     0.0486339  
H17      H      0.993460000000     0.146240000000     0.427960000000     0.0510167  
H18      H      0.993550000000     0.091820000000     0.428170000000     0.0221379  
H19      H      0.011300000000     0.091670000000     0.568980000000     0.0218757  
H20      H      0.012220000000     0.146100000000     0.569210000000     0.0508011  
H21      H      0.955210000000     0.186670000000     0.485970000000     0.0508936  
H22      H      0.954650000000     0.241040000000     0.486910000000     0.0219923  
H23      H      0.049050000000     0.242330000000     0.510910000000     0.0219898  
H24      H      0.049930000000     0.187850000000     0.511480000000     0.050722   
H25      H      0.006770000000     0.146210000000     0.069930000000     0.0509357  
H26      H      0.006660000000     0.091790000000     0.069690000000     0.0217795  
H27      H      0.988910000000     0.091690000000     0.928880000000     0.0220415  
H28      H      0.988000000000     0.146120000000     0.928690000000     0.0511811  
H29      H      0.045020000000     0.186660000000     0.011950000000     0.0510023  
H30      H      0.045600000000     0.241020000000     0.011040000000     0.0220443  
H31      H      0.951200000000     0.242340000000     0.987030000000     0.0219207  
H32      H      0.950310000000     0.187860000000     0.986440000000     0.0509648  
H33      H      0.855520000000     0.010540000000     0.568500000000     0.0506367  
H34      H      0.909940000000     0.010070000000     0.568450000000     0.0220572  
H35      H      0.910150000000     0.991250000000     0.427960000000     0.0223677  
H36      H      0.855720000000     0.990660000000     0.427590000000     0.051063   
H37      H      0.814330000000     0.047520000000     0.513200000000     0.0506673  
H38      H      0.759910000000     0.047230000000     0.512410000000     0.0221187  
H39      H      0.760160000000     0.953430000000     0.483530000000     0.0220808  
H40      H      0.814590000000     0.953440000000     0.482730000000     0.0507295  
H41      H      0.654530000000     0.046830000000     0.715300000000     0.0486419  
H42      H      0.656540000000     0.046660000000     0.634690000000     0.0218901  
H43      H      0.680060000000     0.953950000000     0.635140000000     0.021893   
H44      H      0.680620000000     0.953740000000     0.715800000000     0.0485627  
H45      H      0.653930000000     0.953650000000     0.780290000000     0.0486495  
H46      H      0.654510000000     0.953760000000     0.860960000000     0.0218258  
H47      H      0.677780000000     0.046530000000     0.861620000000     0.0218769  
H48      H      0.679780000000     0.046810000000     0.781030000000     0.048554   
H49      H      0.680380000000     0.046370000000     0.280330000000     0.0488905  
H50      H      0.679770000000     0.046250000000     0.360990000000     0.0218427  
H51      H      0.656550000000     0.953460000000     0.361610000000     0.0218466  
H52      H      0.654570000000     0.953200000000     0.281000000000     0.0490246  
H53      H      0.679820000000     0.953210000000     0.215290000000     0.0489502  
H54      H      0.677860000000     0.953410000000     0.134690000000     0.0218442  
H55      H      0.654420000000     0.046130000000     0.135140000000     0.0218877  
H56      H      0.653790000000     0.046320000000     0.215800000000     0.048955   
H57      H      0.852650000000     0.009800000000     0.068950000000     0.0509863  
H58      H      0.907060000000     0.009270000000     0.069020000000     0.021989   
H59      H      0.907390000000     0.990430000000     0.928540000000     0.0223142  
H60      H      0.852970000000     0.989900000000     0.928040000000     0.051385   
H61      H      0.811680000000     0.046880000000     0.013890000000     0.0510287  
H62      H      0.757260000000     0.046780000000     0.012930000000     0.0221087  
H63      H      0.757250000000     0.953080000000     0.983290000000     0.0220248  
H64      H      0.811660000000     0.952910000000     0.982670000000     0.0510888  
H65      H      0.044940000000     0.521800000000     0.519720000000     0.0489467  
H66      H      0.045080000000     0.575640000000     0.517690000000     0.0218352  
H67      H      0.952590000000     0.576190000000     0.481330000000     0.0218829  
H68      H      0.952090000000     0.522260000000     0.479360000000     0.0489298  
H69      H      0.951690000000     0.478190000000     0.516860000000     0.0489026  
H70      H      0.952240000000     0.424200000000     0.514650000000     0.0217129  
H71      H      0.045370000000     0.424960000000     0.482160000000     0.0218067  
H72      H      0.045260000000     0.478750000000     0.480400000000     0.0489192  
H73      H      0.047650000000     0.812920000000     0.483020000000     0.0507686  
H74      H      0.047160000000     0.758490000000     0.483820000000     0.0220778  
H75      H      0.953440000000     0.759110000000     0.513220000000     0.0220844  
H76      H      0.953650000000     0.813520000000     0.514020000000     0.0508707  
H77      H      0.011000000000     0.854350000000     0.428160000000     0.0508535  
H78      H      0.010670000000     0.908770000000     0.428390000000     0.0221823  
H79      H      0.991470000000     0.908820000000     0.568760000000     0.0223549  
H80      H      0.990740000000     0.854400000000     0.568950000000     0.0510552  
H81      H      0.048190000000     0.522280000000     0.018410000000     0.0487848  
H82      H      0.047690000000     0.576200000000     0.016380000000     0.0219491  
H83      H      0.955190000000     0.575630000000     0.980020000000     0.0218269  
H84      H      0.955340000000     0.521780000000     0.978060000000     0.0486838  
H85      H      0.955030000000     0.478760000000     0.017440000000     0.0487911  
H86      H      0.954900000000     0.424980000000     0.015750000000     0.0217742  
H87      H      0.048040000000     0.424190000000     0.983250000000     0.021736   
H88      H      0.048590000000     0.478180000000     0.980970000000     0.0486185  
H89      H      0.953660000000     0.680550000000     0.781740000000     0.048627   
H90      H      0.954100000000     0.679220000000     0.862330000000     0.0218843  
H91      H      0.046900000000     0.656070000000     0.861760000000     0.0218258  
H92      H      0.046850000000     0.654780000000     0.781090000000     0.0486632  
H93      H      0.046590000000     0.680560000000     0.715940000000     0.0485549  
H94      H      0.046150000000     0.679230000000     0.635340000000     0.0220466  
H95      H      0.953360000000     0.656070000000     0.635920000000     0.0219778  
H96      H      0.953410000000     0.654770000000     0.716590000000     0.0485636  
H97      H      0.046550000000     0.653930000000     0.281670000000     0.0486487  
H98      H      0.046140000000     0.655220000000     0.362300000000     0.0220618  
H99      H      0.953460000000     0.678860000000     0.361750000000     0.0220014  
H100     H      0.953490000000     0.680100000000     0.281080000000     0.0485594  
H101     H      0.953710000000     0.653920000000     0.216010000000     0.0487806  
H102     H      0.954120000000     0.655220000000     0.135380000000     0.0219396  
H103     H      0.046790000000     0.678880000000     0.135930000000     0.0218769  
H104     H      0.046760000000     0.680110000000     0.216600000000     0.048708   
H105     H      0.046570000000     0.813530000000     0.983670000000     0.0509355  
H106     H      0.046790000000     0.759120000000     0.984440000000     0.0221822  
H107     H      0.953070000000     0.758480000000     0.013850000000     0.0221556  
H108     H      0.952570000000     0.812910000000     0.014660000000     0.0510221  
H109     H      0.989210000000     0.854330000000     0.069550000000     0.0512501  
H110     H      0.989530000000     0.908750000000     0.069350000000     0.0223163  
H111     H      0.008740000000     0.908840000000     0.928980000000     0.0221667  
H112     H      0.009470000000     0.854420000000     0.928750000000     0.0509912  
H113     H      0.479780000000     0.046480000000     0.518430000000     0.0490369  
H114     H      0.425880000000     0.046290000000     0.516840000000     0.0218866  
H115     H      0.425780000000     0.953500000000     0.482160000000     0.0218551  
H116     H      0.479670000000     0.953300000000     0.479880000000     0.0490539  
H117     H      0.523330000000     0.953380000000     0.518400000000     0.0490476  
H118     H      0.577220000000     0.953600000000     0.516080000000     0.0218716  
H119     H      0.577030000000     0.046280000000     0.480700000000     0.0218953  
H120     H      0.523140000000     0.046430000000     0.479150000000     0.0490225  
H121     H      0.188530000000     0.046880000000     0.483900000000     0.0509607  
H122     H      0.242940000000     0.046770000000     0.484860000000     0.0220197  
H123     H      0.242960000000     0.953080000000     0.514510000000     0.022028   
H124     H      0.188540000000     0.952910000000     0.515140000000     0.0511106  
H125     H      0.147560000000     0.009820000000     0.428860000000     0.0509063  
H126     H      0.093140000000     0.009300000000     0.428790000000     0.021895   
H127     H      0.092810000000     0.990410000000     0.569260000000     0.0221668  
H128     H      0.147230000000     0.989870000000     0.569760000000     0.0513225  
H129     H      0.520420000000     0.046480000000     0.979360000000     0.0489544  
H130     H      0.574320000000     0.046290000000     0.980950000000     0.0218767  
H131     H      0.574420000000     0.953500000000     0.015630000000     0.0218795  
H132     H      0.520540000000     0.953300000000     0.017910000000     0.049082   
H133     H      0.476870000000     0.953370000000     0.979390000000     0.0489802  
H134     H      0.422980000000     0.953600000000     0.981720000000     0.0218545  
H135     H      0.423170000000     0.046280000000     0.017100000000     0.0219142  
H136     H      0.477070000000     0.046430000000     0.018640000000     0.048978   
H137     H      0.320420000000     0.046810000000     0.716760000000     0.0484969  
H138     H      0.322430000000     0.046530000000     0.636170000000     0.0218961  
H139     H      0.345700000000     0.953760000000     0.636830000000     0.0218382  
H140     H      0.346270000000     0.953650000000     0.717510000000     0.0486387  
H141     H      0.345680000000     0.046830000000     0.782490000000     0.0485914  
H142     H      0.343660000000     0.046650000000     0.863100000000     0.021876   
H143     H      0.320140000000     0.953940000000     0.862650000000     0.0218282  
H144     H      0.319580000000     0.953740000000     0.782000000000     0.0486143  
H145     H      0.345630000000     0.953200000000     0.216790000000     0.04903    
H146     H      0.343660000000     0.953460000000     0.136190000000     0.0218468  
H147     H      0.320430000000     0.046240000000     0.136810000000     0.0218776  
H148     H      0.319820000000     0.046370000000     0.217460000000     0.0488686  
H149     H      0.346420000000     0.046310000000     0.281990000000     0.0489983  
H150     H      0.345790000000     0.046130000000     0.362650000000     0.0218545  
H151     H      0.322350000000     0.953400000000     0.363110000000     0.0218339  
H152     H      0.320380000000     0.953200000000     0.282500000000     0.0489052  
H153     H      0.144480000000     0.990630000000     0.070210000000     0.0509196  
H154     H      0.090060000000     0.991220000000     0.069830000000     0.0221397  
H155     H      0.090270000000     0.010090000000     0.929360000000     0.021856   
H156     H      0.144690000000     0.010560000000     0.929310000000     0.0505119  
H157     H      0.185620000000     0.953440000000     0.015070000000     0.0507418  
H158     H      0.240040000000     0.953430000000     0.014270000000     0.0220466  
H159     H      0.240290000000     0.047230000000     0.985380000000     0.0220967  
H160     H      0.185880000000     0.047520000000     0.984590000000     0.0505163  
N1       N      0.000020000000     0.333260000000     0.868160000000    -0.207916   
N2       N      0.000240000000     0.333270000000     0.629780000000    -0.20788    
N3       N      0.000070000000     0.333050000000     0.129730000000    -0.207913   
N4       N      0.000190000000     0.333040000000     0.368210000000    -0.207997   
N5       N      0.002350000000     0.087700000000     0.498590000000    -0.207836   
N6       N      0.001800000000     0.245720000000     0.498940000000    -0.207715   
N7       N      0.997860000000     0.087700000000     0.999270000000    -0.206993   
N8       N      0.998440000000     0.245720000000     0.999000000000    -0.207162   
N9       N      0.914080000000     0.000650000000     0.498220000000    -0.207765   
N10      N      0.756000000000     0.000320000000     0.497970000000    -0.207755   
N11      N      0.668330000000     0.000300000000     0.628910000000    -0.207954   
N12      N      0.666110000000     0.000130000000     0.867300000000    -0.20798    
N13      N      0.668190000000     0.999870000000     0.367300000000    -0.206893   
N14      N      0.666110000000     0.999780000000     0.128910000000    -0.206836   
N15      N      0.911260000000     0.999860000000     0.998800000000    -0.206934   
N16      N      0.753220000000     0.999930000000     0.998110000000    -0.206904   
N17      N      0.998880000000     0.579920000000     0.499390000000    -0.207199   
N18      N      0.998840000000     0.420580000000     0.498560000000    -0.207178   
N19      N      0.000280000000     0.754760000000     0.498520000000    -0.207693   
N20      N      0.001080000000     0.912830000000     0.498570000000    -0.207546   
N21      N      0.001390000000     0.579920000000     0.998320000000    -0.207828   
N22      N      0.001430000000     0.420580000000     0.999340000000    -0.207899   
N23      N      0.000520000000     0.667620000000     0.868040000000    -0.20772    
N24      N      0.999740000000     0.667630000000     0.629630000000    -0.206923   
N25      N      0.999790000000     0.667060000000     0.368030000000    -0.206933   
N26      N      0.000470000000     0.667060000000     0.129650000000    -0.207693   
N27      N      0.999950000000     0.754760000000     0.999140000000    -0.206312   
N28      N      0.999120000000     0.912830000000     0.999170000000    -0.207082   
N29      N      0.421820000000     0.999900000000     0.499510000000    -0.206965   
N30      N      0.581140000000     0.999950000000     0.498370000000    -0.206889   
N31      N      0.246980000000     0.999930000000     0.499680000000    -0.206901   
N32      N      0.088950000000     0.999860000000     0.499010000000    -0.206757   
N33      N      0.578390000000     0.999900000000     0.998280000000    -0.207003   
N34      N      0.419060000000     0.999950000000     0.999420000000    -0.207014   
N35      N      0.334100000000     0.000130000000     0.630500000000    -0.207943   
N36      N      0.331880000000     0.000290000000     0.868880000000    -0.207978   
N37      N      0.332020000000     0.999860000000     0.130490000000    -0.206838   
N38      N      0.334090000000     0.999780000000     0.368890000000    -0.206915   
N39      N      0.086120000000     0.000650000000     0.999580000000    -0.20797    
N40      N      0.244210000000     0.000310000000     0.999820000000    -0.207896   
O1       O      0.289280000000     0.025100000000     0.997720000000    -0.556596   
O2       O      0.374120000000     0.024900000000     0.001930000000    -0.558335   
O3       O      0.333140000000     0.025100000000     0.936310000000    -0.556419   
O4       O      0.330290000000     0.024880000000     0.063280000000    -0.558277   
O5       O      0.333140000000     0.975090000000     0.063050000000    -0.557435   
O6       O      0.330090000000     0.975320000000     0.936110000000    -0.555731   
O7       O      0.374020000000     0.975130000000     0.997280000000    -0.557409   
O8       O      0.289160000000     0.975300000000     0.001800000000    -0.555096   
O9       O      0.291980000000     0.024820000000     0.497490000000    -0.558694   
O10      O      0.376830000000     0.024810000000     0.501800000000    -0.558687   
O11      O      0.335850000000     0.024740000000     0.436140000000    -0.558556   
O12      O      0.332930000000     0.024920000000     0.563080000000    -0.556931   
O13      O      0.335860000000     0.975130000000     0.563260000000    -0.555298   
O14      O      0.332890000000     0.974950000000     0.436280000000    -0.557478   
O15      O      0.376820000000     0.975020000000     0.497520000000    -0.55772    
O16      O      0.291980000000     0.975040000000     0.501940000000    -0.557746   
O17      O      0.025170000000     0.709950000000     0.996900000000    -0.556713   
O18      O      0.025900000000     0.625110000000     0.000890000000    -0.556142   
O19      O      0.025510000000     0.666180000000     0.935340000000    -0.555923   
O20      O      0.025460000000     0.668870000000     0.062380000000    -0.555754   
O21      O      0.975700000000     0.665510000000     0.062250000000    -0.556664   
O22      O      0.975710000000     0.668780000000     0.935390000000    -0.557023   
O23      O      0.976120000000     0.624710000000     0.996340000000    -0.556153   
O24      O      0.975390000000     0.709570000000     0.001200000000    -0.555708   
O25      O      0.024860000000     0.709570000000     0.496470000000    -0.556979   
O26      O      0.024150000000     0.624720000000     0.501350000000    -0.557945   
O27      O      0.024550000000     0.665510000000     0.435430000000    -0.558654   
O28      O      0.024550000000     0.668790000000     0.562290000000    -0.558628   
O29      O      0.974740000000     0.666180000000     0.562350000000    -0.556472   
O30      O      0.974800000000     0.668860000000     0.435290000000    -0.556684   
O31      O      0.974370000000     0.625100000000     0.496800000000    -0.557206   
O32      O      0.975080000000     0.709940000000     0.500770000000    -0.55664    
O33      O      0.708220000000     0.975050000000     0.995860000000    -0.557958   
O34      O      0.623390000000     0.975020000000     0.000270000000    -0.557447   
O35      O      0.664340000000     0.975130000000     0.934540000000    -0.555444   
O36      O      0.667310000000     0.974950000000     0.061510000000    -0.557361   
O37      O      0.664350000000     0.024740000000     0.061650000000    -0.558427   
O38      O      0.667280000000     0.024920000000     0.934710000000    -0.556818   
O39      O      0.623370000000     0.024810000000     0.995990000000    -0.558482   
O40      O      0.708220000000     0.024830000000     0.000310000000    -0.558503   
O41      O      0.711040000000     0.975300000000     0.495990000000    -0.555388   
O42      O      0.626180000000     0.975130000000     0.500510000000    -0.557179   
O43      O      0.667070000000     0.975090000000     0.434740000000    -0.557534   
O44      O      0.670120000000     0.975320000000     0.561690000000    -0.555534   
O45      O      0.667060000000     0.025100000000     0.561490000000    -0.556405   
O46      O      0.669910000000     0.024880000000     0.434510000000    -0.558371   
O47      O      0.626080000000     0.024910000000     0.495870000000    -0.558353   
O48      O      0.710930000000     0.025100000000     0.500080000000    -0.556573   
O49      O      0.041180000000     0.001770000000     0.962130000000    -0.55724    
O50      O      0.956340000000     0.998780000000     0.961740000000    -0.556251   
O51      O      0.997230000000     0.042700000000     0.961950000000    -0.557012   
O52      O      0.000250000000     0.957850000000     0.961930000000    -0.557169   
O53      O      0.997620000000     0.957820000000     0.036440000000    -0.555722   
O54      O      0.999540000000     0.042690000000     0.036490000000    -0.556672   
O55      O      0.956170000000     0.001240000000     0.036270000000    -0.558364   
O56      O      0.041050000000     0.999270000000     0.036650000000    -0.554748   
O57      O      0.044030000000     0.001250000000     0.461530000000    -0.558436   
O58      O      0.959160000000     0.999290000000     0.461150000000    -0.553183   
O59      O      0.000660000000     0.042710000000     0.461350000000    -0.55717    
O60      O      0.002580000000     0.957830000000     0.461330000000    -0.555491   
O61      O      0.999950000000     0.957840000000     0.535840000000    -0.553971   
O62      O      0.002970000000     0.042690000000     0.535880000000    -0.556604   
O63      O      0.959020000000     0.001760000000     0.535670000000    -0.555458   
O64      O      0.043870000000     0.998770000000     0.536060000000    -0.555673   
O65      O      0.974290000000     0.291210000000     0.997860000000    -0.556881   
O66      O      0.975870000000     0.376040000000     0.000220000000    -0.557959   
O67      O      0.975100000000     0.334520000000     0.935470000000    -0.556725   
O68      O      0.975090000000     0.333270000000     0.062480000000    -0.55662    
O69      O      0.024980000000     0.332920000000     0.062420000000    -0.557046   
O70      O      0.024910000000     0.331920000000     0.935450000000    -0.557558   
O71      O      0.025710000000     0.375140000000     0.997900000000    -0.55563    
O72      O      0.024140000000     0.290240000000     0.999900000000    -0.558783   
O73      O      0.976120000000     0.290240000000     0.498050000000    -0.557418   
O74      O      0.974560000000     0.375150000000     0.500030000000    -0.556044   
O75      O      0.975280000000     0.332920000000     0.435520000000    -0.556641   
O76      O      0.975350000000     0.331930000000     0.562490000000    -0.55691    
O77      O      0.025160000000     0.334520000000     0.562470000000    -0.557147   
O78      O      0.025170000000     0.333260000000     0.435460000000    -0.557484   
O79      O      0.024400000000     0.376040000000     0.497710000000    -0.560045   
O80      O      0.025960000000     0.291200000000     0.500090000000    -0.556398   
V1       V      0.331700000000     0.026990000000     0.999810000000     1.39238    
V2       V      0.331590000000     0.973210000000     0.999560000000     1.39565    
V3       V      0.334410000000     0.026820000000     0.499620000000     1.39337    
V4       V      0.334400000000     0.973040000000     0.499760000000     1.39628    
V5       V      0.027510000000     0.667550000000     0.998870000000     1.39105    
V6       V      0.973740000000     0.667120000000     0.998810000000     1.396      
V7       V      0.026520000000     0.667130000000     0.498870000000     1.39551    
V8       V      0.972740000000     0.667540000000     0.498810000000     1.39388    
V9       V      0.665810000000     0.973040000000     0.998030000000     1.3964     
V10      V      0.665800000000     0.026820000000     0.998180000000     1.39282    
V11      V      0.668620000000     0.973220000000     0.498230000000     1.39573    
V12      V      0.668500000000     0.026990000000     0.497980000000     1.39211    
V13      V      0.998760000000     0.000280000000     0.958960000000     1.3931     
V14      V      0.998600000000     0.000260000000     0.039440000000     1.39234    
V15      V      0.001610000000     0.000270000000     0.458360000000     1.39032    
V16      V      0.001440000000     0.000260000000     0.538840000000     1.38854    
V17      V      0.973110000000     0.333750000000     0.998990000000     1.39705    
V18      V      0.026910000000     0.332570000000     0.998910000000     1.39377    
V19      V      0.973350000000     0.332570000000     0.499020000000     1.3957     
V20      V      0.027150000000     0.333750000000     0.498940000000     1.3954     


