data_structure

_audit_creation_method RASPA-1.0
_audit_creation_date 2023-6-5
_audit_author_name 'Poobodin Mano'

_cell_length_a    48.8157
_cell_length_b    48.7278
_cell_length_c    29.2979
_cell_angle_alpha 89.9808
_cell_angle_beta  90.0189
_cell_angle_gamma 119.978
_cell_volume      60367

_symmetry_cell_setting          triclinic
_symmetry_space_group_name_Hall 'P 1'
_symmetry_space_group_name_H-M  'P 1'
_symmetry_Int_Tables_number     1

_symmetry_equiv_pos_as_xyz 'x,y,z'

loop_
_atom_site_label
_atom_site_type_symbol
_atom_site_fract_x
_atom_site_fract_y
_atom_site_fract_z
_atom_site_charge
C1       C      0.844830000000     0.663600000000     0.568110000000     0.486456   
C2       C      0.826230000000     0.670480000000     0.737030000000     0.485905   
C3       C      0.776570000000     0.638140000000     0.635990000000     0.482606   
C4       C      0.894560000000     0.696320000000     0.669720000000     0.477087   
C5       C      0.191310000000     0.852110000000     0.712350000000     0.478401   
C6       C      0.158520000000     0.827930000000     0.878370000000     0.480087   
C7       C      0.118010000000     0.810850000000     0.768020000000     0.482794   
C8       C      0.232270000000     0.869440000000     0.821450000000     0.478168   
C9       C      0.519570000000     0.008030000000     0.887540000000     0.477178   
C10      C      0.492540000000     0.003780000000     0.055870000000     0.476566   
C11      C      0.447810000000     0.977480000000     0.951090000000     0.482863   
C12      C      0.564240000000     0.034340000000     0.994060000000     0.47702    
C13      C      0.160220000000     0.336170000000     0.384410000000     0.478742   
C14      C      0.185200000000     0.334440000000     0.216590000000     0.482344   
C15      C      0.231770000000     0.362600000000     0.321830000000     0.482872   
C16      C      0.115900000000     0.309340000000     0.276680000000     0.482088   
C17      C      0.824720000000     0.158530000000     0.232560000000     0.477507   
C18      C      0.846960000000     0.183940000000     0.063780000000     0.483763   
C19      C      0.895020000000     0.201530000000     0.168140000000     0.477474   
C20      C      0.777810000000     0.141020000000     0.129450000000     0.48209    
C21      C      0.518660000000     0.513160000000     0.395500000000     0.484224   
C22      C      0.487660000000     0.485370000000     0.561820000000     0.484129   
C23      C      0.446870000000     0.470070000000     0.453660000000     0.476642   
C24      C      0.561780000000     0.529370000000     0.504490000000     0.477918   
C25      C      0.158050000000     0.342760000000     0.716960000000     0.484015   
C26      C      0.181930000000     0.332170000000     0.882820000000     0.478748   
C27      C      0.200430000000     0.310050000000     0.774180000000     0.48025    
C28      C      0.140070000000     0.364230000000     0.826060000000     0.47938    
C29      C      0.343410000000     0.155770000000     0.740770000000     0.483152   
C30      C      0.339250000000     0.181670000000     0.573880000000     0.479522   
C31      C      0.313910000000     0.199400000000     0.681630000000     0.485632   
C32      C      0.368480000000     0.138200000000     0.635570000000     0.48456    
C33      C      0.996740000000     0.512440000000     0.885200000000     0.476295   
C34      C      0.004730000000     0.488870000000     0.052080000000     0.477931   
C35      C      0.028170000000     0.471200000000     0.941670000000     0.484721   
C36      C      0.973420000000     0.531360000000     0.991700000000     0.48642    
C37      C      0.666810000000     0.848710000000     0.223050000000     0.478892   
C38      C      0.671620000000     0.821270000000     0.388790000000     0.480263   
C39      C      0.695520000000     0.804500000000     0.279350000000     0.485915   
C40      C      0.642460000000     0.865840000000     0.331480000000     0.479926   
C41      C      0.846790000000     0.659600000000     0.235480000000     0.481174   
C42      C      0.824330000000     0.670630000000     0.069530000000     0.480811   
C43      C      0.805880000000     0.692700000000     0.177940000000     0.480827   
C44      C      0.865280000000     0.637510000000     0.126490000000     0.480751   
C45      C      0.491100000000     0.010080000000     0.389440000000     0.48195    
C46      C      0.519400000000     0.000430000000     0.553560000000     0.482763   
C47      C      0.534160000000     0.977940000000     0.441390000000     0.484707   
C48      C      0.475860000000     0.032560000000     0.499900000000     0.479277   
C49      C      0.335670000000     0.157090000000     0.073890000000     0.479153   
C50      C      0.343280000000     0.187840000000     0.241080000000     0.483827   
C51      C      0.367560000000     0.230070000000     0.135490000000     0.483915   
C52      C      0.310760000000     0.113860000000     0.180390000000     0.479536   
C53      C      0.520410000000     0.516070000000     0.061900000000     0.47807    
C54      C      0.496340000000     0.487340000000     0.894410000000     0.479354   
C55      C      0.477470000000     0.443830000000     0.001160000000     0.478787   
C56      C      0.539660000000     0.559960000000     0.956400000000     0.483924   
C57      C      0.174870000000     0.841250000000     0.381320000000     0.485117   
C58      C      0.155170000000     0.819660000000     0.211400000000     0.484716   
C59      C      0.133950000000     0.772520000000     0.312650000000     0.48323    
C60      C      0.197380000000     0.890580000000     0.280160000000     0.485367   
C61      C      0.003960000000     0.517720000000     0.552200000000     0.482088   
C62      C      0.002930000000     0.486570000000     0.386420000000     0.483163   
C63      C      0.975950000000     0.443630000000     0.497200000000     0.484042   
C64      C      0.029240000000     0.558090000000     0.444180000000     0.477162   
C65      C      0.823250000000     0.148930000000     0.565750000000     0.483222   
C66      C      0.848460000000     0.187600000000     0.729810000000     0.476132   
C67      C      0.865330000000     0.225390000000     0.617910000000     0.477736   
C68      C      0.807410000000     0.112770000000     0.678750000000     0.483356   
C69      C      0.673560000000     0.843100000000     0.891100000000     0.485555   
C70      C      0.668400000000     0.822980000000     0.720390000000     0.486183   
C71      C      0.643930000000     0.774220000000     0.824210000000     0.478715   
C72      C      0.698330000000     0.891700000000     0.787420000000     0.478747   
C73      C      0.807730000000     0.072200000000     0.725870000000     0.184253   
C74      C      0.760740000000     0.063610000000     0.688550000000     0.079675   
C75      C      0.791980000000     0.040480000000     0.740400000000    -0.13619    
C76      C      0.760270000000     0.969840000000     0.749010000000    -0.0867028  
C77      C      0.744570000000     0.032150000000     0.703260000000    -0.101681   
C78      C      0.743700000000     0.986330000000     0.744760000000     0.0259132  
C79      C      0.760230000000     0.020000000000     0.729050000000     0.0541991  
C80      C      0.744870000000     0.938580000000     0.764350000000     0.0723819  
C81      C      0.696550000000     0.938720000000     0.770380000000     0.0710491  
C82      C      0.711410000000     0.970320000000     0.755940000000    -0.0859427  
C83      C      0.976170000000     0.403120000000     0.545390000000     0.184634   
C84      C      0.930760000000     0.392760000000     0.501870000000     0.0791725  
C85      C      0.960810000000     0.371190000000     0.559200000000    -0.135783   
C86      C      0.928250000000     0.299840000000     0.569640000000    -0.0863637  
C87      C      0.914760000000     0.361360000000     0.516700000000    -0.102145   
C88      C      0.912610000000     0.317110000000     0.563610000000     0.0261525  
C89      C      0.929740000000     0.350130000000     0.545610000000     0.0542822  
C90      C      0.912150000000     0.269330000000     0.588070000000     0.0723299  
C91      C      0.865270000000     0.272230000000     0.594420000000     0.0717202  
C92      C      0.880700000000     0.302850000000     0.576250000000    -0.0863868  
C93      C      0.127440000000     0.719880000000     0.314970000000     0.18427    
C94      C      0.090720000000     0.731240000000     0.351630000000     0.0789331  
C95      C      0.113310000000     0.690170000000     0.336650000000    -0.136676   
C96      C      0.090530000000     0.636410000000     0.404730000000    -0.0869343  
C97      C      0.075820000000     0.701530000000     0.372390000000    -0.102871   
C98      C      0.072280000000     0.649200000000     0.388410000000     0.0259351  
C99      C      0.087500000000     0.680840000000     0.365940000000     0.054298   
C100     C      0.075810000000     0.606170000000     0.424110000000     0.0705686  
C101     C      0.025440000000     0.601190000000     0.412890000000     0.0718672  
C102     C      0.039360000000     0.631270000000     0.393150000000    -0.0864356  
C103     C      0.546290000000     0.612580000000     0.951820000000     0.18483    
C104     C      0.581870000000     0.600040000000     0.914200000000     0.0795502  
C105     C      0.560170000000     0.641850000000     0.928970000000    -0.136671   
C106     C      0.582410000000     0.695240000000     0.860750000000    -0.0867189  
C107     C      0.596520000000     0.629340000000     0.892170000000    -0.102158   
C108     C      0.600530000000     0.681900000000     0.875530000000     0.0261212  
C109     C      0.585320000000     0.650440000000     0.898620000000     0.0542691  
C110     C      0.597220000000     0.725760000000     0.842350000000     0.072118   
C111     C      0.647390000000     0.729780000000     0.850540000000     0.0717129  
C112     C      0.633380000000     0.699410000000     0.869410000000    -0.0865575  
C113     C      0.245800000000     0.941550000000     0.280190000000     0.184428   
C114     C      0.198560000000     0.934780000000     0.245970000000     0.0804834  
C115     C      0.262230000000     0.972920000000     0.263830000000    -0.135249   
C116     C      0.295830000000     0.034560000000     0.211260000000    -0.0860391  
C117     C      0.214370000000     0.965770000000     0.229740000000    -0.102048   
C118     C      0.263580000000     0.019100000000     0.222590000000     0.026571   
C119     C      0.246640000000     0.985430000000     0.238460000000     0.0539082  
C120     C      0.311310000000     0.066280000000     0.197480000000     0.0722197  
C121     C      0.263670000000     0.067690000000     0.204010000000     0.0728977  
C122     C      0.247670000000     0.036320000000     0.218970000000    -0.0865982  
C123     C      0.414350000000     0.282060000000     0.129750000000     0.183967   
C124     C      0.365980000000     0.270750000000     0.094100000000     0.079205   
C125     C      0.429830000000     0.311430000000     0.107100000000    -0.136251   
C126     C      0.460450000000     0.365190000000     0.039180000000    -0.0865924  
C127     C      0.380730000000     0.300100000000     0.072320000000    -0.102499   
C128     C      0.429360000000     0.352220000000     0.055180000000     0.0261352  
C129     C      0.413150000000     0.320680000000     0.077980000000     0.0541404  
C130     C      0.475950000000     0.395550000000     0.020240000000     0.0720219  
C131     C      0.430320000000     0.400230000000     0.030720000000     0.0724358  
C132     C      0.414220000000     0.370060000000     0.050170000000    -0.0864727  
C133     C      0.647710000000     0.823970000000     0.645090000000     0.184405   
C134     C      0.688740000000     0.811420000000     0.654560000000     0.0789299  
C135     C      0.646270000000     0.816750000000     0.598430000000    -0.137489   
C136     C      0.698130000000     0.830270000000     0.507390000000    -0.0872803  
C137     C      0.689310000000     0.806700000000     0.607720000000    -0.103932   
C138     C      0.670250000000     0.808280000000     0.529230000000     0.0260457  
C139     C      0.667760000000     0.809120000000     0.579340000000     0.0551343  
C140     C      0.698540000000     0.833540000000     0.460060000000     0.0729443  
C141     C      0.645270000000     0.791830000000     0.455350000000     0.0724548  
C142     C      0.643820000000     0.788450000000     0.502770000000    -0.0876894  
C143     C      0.694410000000     0.843370000000     0.966970000000     0.183549   
C144     C      0.652600000000     0.854630000000     0.956160000000     0.0788008  
C145     C      0.695210000000     0.850620000000     0.013590000000    -0.136902   
C146     C      0.696350000000     0.879080000000     0.108610000000    -0.0876594  
C147     C      0.651550000000     0.859520000000     0.002810000000    -0.103884   
C148     C      0.670160000000     0.859040000000     0.081920000000     0.0257994  
C149     C      0.673090000000     0.857690000000     0.031900000000     0.0547254  
C150     C      0.694210000000     0.876690000000     0.156130000000     0.071867   
C151     C      0.640720000000     0.835540000000     0.151070000000     0.0714017  
C152     C      0.641830000000     0.837830000000     0.103560000000    -0.0875119  
C153     C      0.695150000000     0.762440000000     0.234550000000     0.18496    
C154     C      0.740340000000     0.798340000000     0.277870000000     0.0802609  
C155     C      0.710240000000     0.745180000000     0.223320000000    -0.136541   
C156     C      0.742220000000     0.705530000000     0.218990000000    -0.086489   
C157     C      0.756000000000     0.782120000000     0.265880000000    -0.103047   
C158     C      0.758000000000     0.738590000000     0.223220000000     0.0263434  
C159     C      0.741000000000     0.755170000000     0.238370000000     0.0548291  
C160     C      0.758500000000     0.690540000000     0.203540000000     0.0726702  
C161     C      0.805720000000     0.740100000000     0.196760000000     0.0729175  
C162     C      0.790140000000     0.755830000000     0.211770000000    -0.0871566  
C163     C      0.533860000000     0.936740000000     0.395350000000     0.18468    
C164     C      0.580780000000     0.975340000000     0.432710000000     0.0800822  
C165     C      0.549560000000     0.920620000000     0.381540000000    -0.136541   
C166     C      0.581070000000     0.881640000000     0.373360000000    -0.0870399  
C167     C      0.596870000000     0.959830000000     0.418860000000    -0.102001   
C168     C      0.597750000000     0.914690000000     0.378050000000     0.02633    
C169     C      0.581210000000     0.931850000000     0.393370000000     0.0542036  
C170     C      0.596310000000     0.865860000000     0.357170000000     0.0726796  
C171     C      0.644790000000     0.914320000000     0.352060000000     0.0724258  
C172     C      0.630070000000     0.930990000000     0.367180000000    -0.0860815  
C173     C      0.031260000000     0.539150000000     0.623760000000     0.183544   
C174     C      0.975350000000     0.515510000000     0.618530000000     0.0784731  
C175     C      0.029120000000     0.538690000000     0.671620000000    -0.136786   
C176     C      0.020670000000     0.548170000000     0.771630000000    -0.0870524  
C177     C      0.972850000000     0.516080000000     0.665940000000    -0.102373   
C178     C      0.997330000000     0.524620000000     0.743950000000     0.0257973  
C179     C      0.999770000000     0.526700000000     0.693230000000     0.0539659  
C180     C      0.019590000000     0.544210000000     0.818950000000     0.069622   
C181     C      0.971950000000     0.495050000000     0.812640000000     0.071455   
C182     C      0.972420000000     0.498140000000     0.765210000000    -0.0864371  
C183     C      0.033040000000     0.491880000000     0.317090000000     0.182667   
C184     C      0.977240000000     0.470590000000     0.315030000000     0.0783931  
C185     C      0.032730000000     0.486570000000     0.269820000000    -0.135248   
C186     C      0.031570000000     0.502510000000     0.170910000000    -0.0861886  
C187     C      0.976980000000     0.467270000000     0.267690000000    -0.101021   
C188     C      0.006160000000     0.477150000000     0.193380000000     0.0258069  
C189     C      0.005040000000     0.475850000000     0.244300000000     0.0535365  
C190     C      0.031200000000     0.505360000000     0.123570000000     0.0723689  
C191     C      0.981460000000     0.458250000000     0.119360000000     0.0716034  
C192     C      0.981150000000     0.454550000000     0.166800000000    -0.0859087  
C193     C      0.975130000000     0.580310000000     0.013690000000     0.185241   
C194     C      0.926800000000     0.531260000000     0.014340000000     0.0783844  
C195     C      0.960660000000     0.594300000000     0.038430000000    -0.136037   
C196     C      0.924570000000     0.626110000000     0.066960000000    -0.0861684  
C197     C      0.911250000000     0.545580000000     0.034600000000    -0.101329   
C198     C      0.912060000000     0.593200000000     0.070500000000     0.0265548  
C199     C      0.928220000000     0.577350000000     0.048310000000     0.0539638  
C200     C      0.909300000000     0.640550000000     0.087550000000     0.0734778  
C201     C      0.868190000000     0.590810000000     0.113190000000     0.0728234  
C202     C      0.883640000000     0.575710000000     0.094830000000    -0.0860332  
C203     C      0.370850000000     0.164590000000     0.813000000000     0.183087   
C204     C      0.315220000000     0.130100000000     0.807680000000     0.0784757  
C205     C      0.368520000000     0.163570000000     0.860830000000    -0.136587   
C206     C      0.360160000000     0.145620000000     0.960730000000    -0.0871769  
C207     C      0.312610000000     0.127800000000     0.855100000000    -0.102643   
C208     C      0.336680000000     0.145330000000     0.932900000000     0.0262223  
C209     C      0.339260000000     0.145410000000     0.882320000000     0.0539167  
C210     C      0.358920000000     0.148580000000     0.007940000000     0.0725524  
C211     C      0.310920000000     0.149340000000     0.001210000000     0.0722862  
C212     C      0.311500000000     0.146540000000     0.953810000000    -0.0867158  
C213     C      0.323690000000     0.201540000000     0.308840000000     0.183322   
C214     C      0.367420000000     0.192780000000     0.312870000000     0.0782061  
C215     C      0.321640000000     0.200370000000     0.356810000000    -0.137455   
C216     C      0.313530000000     0.172170000000     0.454580000000    -0.0870996  
C217     C      0.367080000000     0.193690000000     0.360350000000    -0.10364    
C218     C      0.341310000000     0.194690000000     0.433070000000     0.0258998  
C219     C      0.343350000000     0.196340000000     0.382720000000     0.0545497  
C220     C      0.312990000000     0.168590000000     0.501920000000     0.0723295  
C221     C      0.366060000000     0.210620000000     0.507230000000     0.0722707  
C222     C      0.367630000000     0.214340000000     0.459870000000    -0.0874911  
C223     C      0.414600000000     0.131850000000     0.631050000000     0.184149   
C224     C      0.366390000000     0.095780000000     0.594020000000     0.0798462  
C225     C      0.429880000000     0.117750000000     0.608570000000    -0.136601   
C226     C      0.413720000000     0.043690000000     0.551320000000    -0.086775   
C227     C      0.380930000000     0.080910000000     0.572490000000    -0.102499   
C228     C      0.429160000000     0.076670000000     0.556290000000     0.0262321  
C229     C      0.413170000000     0.092200000000     0.578910000000     0.0544831  
C230     C      0.429480000000     0.029420000000     0.531540000000     0.0727084  
C231     C      0.475420000000     0.079560000000     0.520960000000     0.0714929  
C232     C      0.460280000000     0.094630000000     0.540320000000    -0.0870851  
C233     C      0.069080000000     0.471680000000     0.895000000000     0.185469   
C234     C      0.031240000000     0.424690000000     0.933160000000     0.0802397  
C235     C      0.085440000000     0.456280000000     0.881080000000    -0.137007   
C236     C      0.124680000000     0.425080000000     0.871960000000    -0.086893   
C237     C      0.046870000000     0.408780000000     0.918830000000    -0.101958   
C238     C      0.091670000000     0.408360000000     0.876550000000     0.0261951  
C239     C      0.074570000000     0.424670000000     0.892900000000     0.0545444  
C240     C      0.140360000000     0.410090000000     0.854390000000     0.0724152  
C241     C      0.091810000000     0.361870000000     0.847320000000     0.0720398  
C242     C      0.075280000000     0.376310000000     0.864010000000    -0.0865661  
C243     C      0.313600000000     0.242380000000     0.723110000000     0.184644   
C244     C      0.268440000000     0.204500000000     0.681630000000     0.0801174  
C245     C      0.297990000000     0.259410000000     0.732630000000    -0.136282   
C246     C      0.264610000000     0.297830000000     0.733600000000    -0.0865409  
C247     C      0.252270000000     0.220500000000     0.692010000000    -0.10298    
C248     C      0.249440000000     0.264700000000     0.731370000000     0.0263677  
C249     C      0.266980000000     0.248320000000     0.717730000000     0.0546742  
C250     C      0.247910000000     0.312640000000     0.748020000000     0.0726041  
C251     C      0.201440000000     0.262780000000     0.757500000000     0.0728068  
C252     C      0.217440000000     0.247220000000     0.743520000000    -0.0869278  
C253     C      0.476760000000     0.451930000000     0.629050000000     0.183708   
C254     C      0.481070000000     0.502690000000     0.634130000000     0.0793746  
C255     C      0.478480000000     0.451000000000     0.676980000000    -0.13704    
C256     C      0.462510000000     0.481230000000     0.780840000000    -0.0876077  
C257     C      0.480750000000     0.501260000000     0.681550000000    -0.103492   
C258     C      0.482640000000     0.475420000000     0.753750000000     0.0260057  
C259     C      0.480620000000     0.475820000000     0.703410000000     0.0546697  
C260     C      0.466630000000     0.483840000000     0.828060000000     0.0725961  
C261     C      0.509870000000     0.474670000000     0.822300000000     0.0719256  
C262     C      0.506020000000     0.471340000000     0.774970000000    -0.0869762  
C263     C      0.516030000000     0.539450000000     0.326190000000     0.183499   
C264     C      0.534500000000     0.502500000000     0.324630000000     0.0784779  
C265     C      0.522640000000     0.545060000000     0.279340000000    -0.13612    
C266     C      0.506810000000     0.528550000000     0.180820000000    -0.0871057  
C267     C      0.538930000000     0.506120000000     0.277470000000    -0.101559   
C268     C      0.531570000000     0.527410000000     0.203280000000     0.0259676  
C269     C      0.532410000000     0.527150000000     0.254090000000     0.053998   
C270     C      0.504190000000     0.525840000000     0.133530000000     0.0721642  
C271     C      0.550430000000     0.521640000000     0.129250000000     0.0711161  
C272     C      0.553830000000     0.524360000000     0.176790000000    -0.086424   
C273     C      0.841080000000     0.208800000000     0.995090000000     0.183111   
C274     C      0.862250000000     0.174130000000     0.991910000000     0.0781674  
C275     C      0.846830000000     0.214660000000     0.948040000000    -0.135546   
C276     C      0.832990000000     0.199800000000     0.848080000000    -0.0863071  
C277     C      0.866200000000     0.178170000000     0.944750000000    -0.101499   
C278     C      0.858020000000     0.199560000000     0.871220000000     0.0258092  
C279     C      0.858140000000     0.198350000000     0.922070000000     0.0537017  
C280     C      0.831030000000     0.197330000000     0.800620000000     0.0718527  
C281     C      0.878660000000     0.195630000000     0.797680000000     0.0700774  
C282     C      0.881420000000     0.198190000000     0.845250000000    -0.0866202  
C283     C      0.834320000000     0.130310000000     0.494860000000     0.18401    
C284     C      0.796350000000     0.147240000000     0.497860000000     0.0790482  
C285     C      0.833750000000     0.131180000000     0.446820000000    -0.135734   
C286     C      0.817980000000     0.122240000000     0.344910000000    -0.0861487  
C287     C      0.794510000000     0.147030000000     0.450420000000    -0.102699   
C288     C      0.815200000000     0.143710000000     0.373640000000     0.0260761  
C289     C      0.814300000000     0.140300000000     0.424200000000     0.054083   
C290     C      0.820370000000     0.127060000000     0.297640000000     0.0713435  
C291     C      0.816670000000     0.173440000000     0.306490000000     0.0719574  
C292     C      0.814230000000     0.169340000000     0.353710000000    -0.0866649  
C293     C      0.125000000000     0.323510000000     0.649110000000     0.184205   
C294     C      0.177180000000     0.367780000000     0.645570000000     0.0787791  
C295     C      0.124300000000     0.321530000000     0.601170000000    -0.13737    
C296     C      0.144170000000     0.312520000000     0.504530000000    -0.0869004  
C297     C      0.176150000000     0.367440000000     0.598030000000    -0.103102   
C298     C      0.150070000000     0.340850000000     0.525080000000     0.0260743  
C299     C      0.150080000000     0.343390000000     0.575410000000     0.0545571  
C300     C      0.147070000000     0.311180000000     0.457290000000     0.0726365  
C301     C      0.159460000000     0.364660000000     0.450060000000     0.0720279  
C302     C      0.157460000000     0.367020000000     0.497350000000    -0.0871698  
C303     C      0.178240000000     0.303690000000     0.147520000000     0.181729   
C304     C      0.200780000000     0.359780000000     0.144940000000     0.0768567  
C305     C      0.183350000000     0.303610000000     0.100310000000    -0.13598    
C306     C      0.167610000000     0.305190000000     0.001480000000    -0.08659    
C307     C      0.203980000000     0.359730000000     0.097650000000    -0.101862   
C308     C      0.193520000000     0.330080000000     0.023810000000     0.0261676  
C309     C      0.194780000000     0.331360000000     0.074610000000     0.0534164  
C310     C      0.164790000000     0.305680000000     0.954170000000     0.0723164  
C311     C      0.213100000000     0.354370000000     0.949850000000     0.0719181  
C312     C      0.216750000000     0.354550000000     0.997230000000    -0.0868933  
C313     C      0.074960000000     0.310510000000     0.231010000000     0.183882   
C314     C      0.064910000000     0.264230000000     0.272190000000     0.077963   
C315     C      0.042850000000     0.295700000000     0.218620000000    -0.135692   
C316     C      0.971290000000     0.263870000000     0.212380000000    -0.0862517  
C317     C      0.033300000000     0.248700000000     0.258450000000    -0.102023   
C318     C      0.988540000000     0.247990000000     0.214900000000     0.0265485  
C319     C      0.021830000000     0.264460000000     0.231570000000     0.0537104  
C320     C      0.940260000000     0.248190000000     0.195920000000     0.0721866  
C321     C      0.942900000000     0.201480000000     0.183910000000     0.072136   
C322     C      0.973960000000     0.216440000000     0.200190000000    -0.0868047  
C323     C      0.282030000000     0.364390000000     0.331820000000     0.183847   
C324     C      0.273770000000     0.405580000000     0.359590000000     0.0799202  
C325     C      0.312020000000     0.379040000000     0.352900000000    -0.13471    
C326     C      0.369710000000     0.406410000000     0.414030000000    -0.0856052  
C327     C      0.303270000000     0.420350000000     0.380700000000    -0.101914   
C328     C      0.355260000000     0.423540000000     0.399060000000     0.0260089  
C329     C      0.323020000000     0.407260000000     0.377730000000     0.0535958  
C330     C      0.400280000000     0.422270000000     0.432330000000     0.0714793  
C331     C      0.402270000000     0.471570000000     0.423960000000     0.071558   
C332     C      0.372200000000     0.456620000000     0.404310000000    -0.0864298  
C333     C      0.510280000000     0.971900000000     0.625120000000     0.184057   
C334     C      0.545430000000     0.027520000000     0.621020000000     0.0786205  
C335     C      0.511140000000     0.973740000000     0.673120000000    -0.135864   
C336     C      0.528310000000     0.981520000000     0.774020000000    -0.0864989  
C337     C      0.547510000000     0.029640000000     0.668490000000    -0.102372   
C338     C      0.529170000000     0.005230000000     0.745970000000     0.0260872  
C339     C      0.529400000000     0.002820000000     0.695260000000     0.0539897  
C340     C      0.526010000000     0.983270000000     0.821390000000     0.0713479  
C341     C      0.526450000000     0.031930000000     0.814270000000     0.0718594  
C342     C      0.528710000000     0.030890000000     0.766820000000    -0.0860883  
C343     C      0.500380000000     0.038710000000     0.318100000000     0.184246   
C344     C      0.464940000000     0.983130000000     0.322000000000     0.0774681  
C345     C      0.499590000000     0.036980000000     0.270140000000    -0.136166   
C346     C      0.482960000000     0.029720000000     0.169280000000    -0.0864562  
C347     C      0.462920000000     0.981120000000     0.274510000000    -0.103132   
C348     C      0.481630000000     0.005720000000     0.197190000000     0.0258221  
C349     C      0.481210000000     0.007980000000     0.247880000000     0.0540206  
C350     C      0.485740000000     0.028280000000     0.121990000000     0.0708501  
C351     C      0.484680000000     0.979300000000     0.128850000000     0.0714573  
C352     C      0.481980000000     0.980050000000     0.176250000000    -0.0862938  
C353     C      0.725490000000     0.135320000000     0.124090000000     0.182588   
C354     C      0.737360000000     0.098810000000     0.087800000000     0.0790174  
C355     C      0.696110000000     0.121260000000     0.101360000000    -0.1355     
C356     C      0.641870000000     0.097250000000     0.033400000000    -0.0861219  
C357     C      0.708070000000     0.084070000000     0.066020000000    -0.101899   
C358     C      0.655530000000     0.079660000000     0.049300000000     0.0261309  
C359     C      0.687130000000     0.095470000000     0.072000000000     0.0537172  
C360     C      0.611650000000     0.081830000000     0.013950000000     0.071525   
C361     C      0.608400000000     0.032050000000     0.024090000000     0.0722976  
C362     C      0.638430000000     0.046660000000     0.043940000000    -0.0860708  
C363     C      0.155760000000     0.841970000000     0.457880000000     0.184062   
C364     C      0.208490000000     0.852810000000     0.445130000000     0.0784301  
C365     C      0.163130000000     0.850020000000     0.504070000000    -0.137399   
C366     C      0.204250000000     0.838420000000     0.593630000000    -0.0873542  
C367     C      0.215360000000     0.858450000000     0.491510000000    -0.104176   
C368     C      0.197920000000     0.859930000000     0.571060000000     0.0258723  
C369     C      0.192670000000     0.857400000000     0.521280000000     0.054802   
C370     C      0.203330000000     0.837020000000     0.641210000000     0.0725612  
C371     C      0.193020000000     0.879680000000     0.644380000000     0.0711611  
C372     C      0.193020000000     0.881220000000     0.596810000000    -0.0882093  
C373     C      0.122590000000     0.808480000000     0.143260000000     0.183277   
C374     C      0.175020000000     0.817070000000     0.139010000000     0.0784107  
C375     C      0.121990000000     0.810660000000     0.095400000000    -0.137663   
C376     C      0.152290000000     0.795360000000     0.992830000000    -0.0883359  
C377     C      0.173990000000     0.817090000000     0.091550000000    -0.103832   
C378     C      0.147130000000     0.816240000000     0.019140000000     0.0261666  
C379     C      0.147720000000     0.814860000000     0.069420000000     0.0546101  
C380     C      0.154440000000     0.798650000000     0.945480000000     0.0725021  
C381     C      0.146150000000     0.842590000000     0.949780000000     0.0723752  
C382     C      0.143170000000     0.839510000000     0.997210000000    -0.0873298  
C383     C      0.396600000000     0.973900000000     0.944340000000     0.184265   
C384     C      0.406200000000     0.934540000000     0.912540000000     0.079871   
C385     C      0.366570000000     0.959220000000     0.923490000000    -0.135052   
C386     C      0.309290000000     0.932860000000     0.861840000000    -0.0855117  
C387     C      0.376540000000     0.919630000000     0.891810000000    -0.10178    
C388     C      0.323980000000     0.915710000000     0.875570000000     0.0262509  
C389     C      0.356200000000     0.931910000000     0.896780000000     0.0539117  
C390     C      0.278700000000     0.917090000000     0.843660000000     0.072174   
C391     C      0.277130000000     0.867880000000     0.849960000000     0.0723005  
C392     C      0.307300000000     0.882750000000     0.869290000000    -0.0862915  
C393     C      0.831100000000     0.701150000000     0.805360000000     0.183608   
C394     C      0.810410000000     0.645330000000     0.808560000000     0.0793208  
C395     C      0.825000000000     0.701080000000     0.852280000000    -0.136424   
C396     C      0.839050000000     0.699550000000     0.951960000000    -0.0869183  
C397     C      0.806060000000     0.645250000000     0.855500000000    -0.102747   
C398     C      0.813880000000     0.674480000000     0.928810000000     0.0262175  
C399     C      0.813750000000     0.673380000000     0.878090000000     0.0544149  
C400     C      0.841390000000     0.698460000000     0.999230000000     0.0727737  
C401     C      0.793840000000     0.648940000000     0.001880000000     0.0723955  
C402     C      0.790670000000     0.649350000000     0.954520000000    -0.0868885  
C403     C      0.838880000000     0.632180000000     0.500360000000     0.184256   
C404     C      0.860480000000     0.688110000000     0.496030000000     0.0794242  
C405     C      0.844960000000     0.631660000000     0.453590000000    -0.136588   
C406     C      0.831200000000     0.632340000000     0.353760000000    -0.0869407  
C407     C      0.864760000000     0.687630000000     0.449110000000    -0.102428   
C408     C      0.856580000000     0.657440000000     0.376550000000     0.026391   
C409     C      0.856650000000     0.659140000000     0.427200000000     0.0544933  
C410     C      0.829100000000     0.632780000000     0.306400000000     0.0731077  
C411     C      0.877300000000     0.681670000000     0.302990000000     0.0724324  
C412     C      0.880230000000     0.681910000000     0.350470000000    -0.0870105  
C413     C      0.724280000000     0.591070000000     0.632700000000     0.18214    
C414     C      0.735080000000     0.639030000000     0.596000000000     0.078953   
C415     C      0.694520000000     0.575320000000     0.610990000000    -0.135494   
C416     C      0.639620000000     0.544580000000     0.543670000000    -0.0862369  
C417     C      0.705380000000     0.624090000000     0.575450000000    -0.102193   
C418     C      0.652890000000     0.575580000000     0.560440000000     0.026127   
C419     C      0.684810000000     0.591760000000     0.582120000000     0.0537397  
C420     C      0.609380000000     0.529660000000     0.524260000000     0.0716585  
C421     C      0.605190000000     0.575460000000     0.536810000000     0.0725221  
C422     C      0.635260000000     0.591010000000     0.556500000000    -0.0861307  
C423     C      0.075760000000     0.810240000000     0.724000000000     0.183827   
C424     C      0.068700000000     0.763940000000     0.761990000000     0.079773   
C425     C      0.043690000000     0.793910000000     0.711190000000    -0.135361   
C426     C      0.972840000000     0.760750000000     0.703220000000    -0.0865587  
C427     C      0.036900000000     0.747290000000     0.749270000000    -0.101343   
C428     C      0.989820000000     0.744750000000     0.709190000000     0.0262416  
C429     C      0.023790000000     0.762210000000     0.723720000000     0.0533072  
C430     C      0.941350000000     0.744340000000     0.688890000000     0.0713552  
C431     C      0.942170000000     0.696160000000     0.687570000000     0.0718898  
C432     C      0.973980000000     0.712000000000     0.700740000000    -0.0857243  
H1       H      0.758790000000     0.926910000000     0.766790000000     0.0219465  
H2       H      0.747840000000     0.071590000000     0.667360000000     0.0188859  
H3       H      0.697620000000     0.982100000000     0.754100000000     0.0476817  
H4       H      0.720100000000     0.017290000000     0.693260000000     0.0519603  
H5       H      0.785020000000     0.980740000000     0.739890000000     0.0471717  
H6       H      0.804220000000     0.032370000000     0.762660000000     0.0615004  
H7       H      0.671560000000     0.927210000000     0.778450000000     0.0208679  
H8       H      0.848330000000     0.083120000000     0.764210000000     0.0835675  
H9       H      0.848230000000     0.116530000000     0.741530000000     0.100763   
H10      H      0.925250000000     0.256900000000     0.592000000000     0.02249    
H11      H      0.918280000000     0.399950000000     0.478450000000     0.0193482  
H12      H      0.867750000000     0.315440000000     0.572980000000     0.0473438  
H13      H      0.890820000000     0.345850000000     0.504920000000     0.0515522  
H14      H      0.952790000000     0.309710000000     0.559880000000     0.0486248  
H15      H      0.972370000000     0.363440000000     0.583370000000     0.0625188  
H16      H      0.840630000000     0.262220000000     0.603850000000     0.0216763  
H17      H      0.014770000000     0.414950000000     0.588820000000     0.0851779  
H18      H      0.014000000000     0.447960000000     0.566350000000     0.102937   
H19      H      0.090850000000     0.597100000000     0.435800000000     0.0191013  
H20      H      0.081610000000     0.746920000000     0.359680000000     0.0170543  
H21      H      0.024250000000     0.640000000000     0.380660000000     0.0483405  
H22      H      0.055860000000     0.695320000000     0.394670000000     0.0519666  
H23      H      0.116090000000     0.649650000000     0.402610000000     0.0470257  
H24      H      0.121550000000     0.673760000000     0.328840000000     0.0614369  
H25      H      0.999850000000     0.588010000000     0.415190000000     0.0231181  
H26      H      0.156790000000     0.744320000000     0.258530000000     0.100236   
H27      H      0.156900000000     0.709560000000     0.275010000000     0.0832441  
H28      H      0.582290000000     0.735330000000     0.832240000000     0.0218238  
H29      H      0.590590000000     0.584010000000     0.906300000000     0.019979   
H30      H      0.648420000000     0.690250000000     0.880550000000     0.0480074  
H31      H      0.615950000000     0.634940000000     0.869100000000     0.0525106  
H32      H      0.556890000000     0.682310000000     0.863720000000     0.0477192  
H33      H      0.552360000000     0.658590000000     0.936810000000     0.061708   
H34      H      0.672940000000     0.742710000000     0.847520000000     0.021066   
H35      H      0.517970000000     0.624060000000     0.992430000000     0.0834021  
H36      H      0.518130000000     0.589520000000     0.009890000000     0.100409   
H37      H      0.336240000000     0.077280000000     0.189200000000     0.0216983  
H38      H      0.173750000000     0.920410000000     0.237050000000     0.0193685  
H39      H      0.223030000000     0.025970000000     0.228350000000     0.0474047  
H40      H      0.201210000000     0.973880000000     0.209570000000     0.0515408  
H41      H      0.309150000000     0.022280000000     0.212520000000     0.0478789  
H42      H      0.286820000000     0.987980000000     0.273160000000     0.0617829  
H43      H      0.250310000000     0.079960000000     0.201960000000     0.0219578  
H44      H      0.249940000000     0.911680000000     0.329200000000     0.100885   
H45      H      0.285240000000     0.947050000000     0.316830000000     0.0846681  
H46      H      0.500140000000     0.404770000000     0.008940000000     0.0215605  
H47      H      0.341060000000     0.255200000000     0.086880000000     0.0195314  
H48      H      0.390330000000     0.361240000000     0.062400000000     0.0480347  
H49      H      0.366820000000     0.306150000000     0.050080000000     0.0521835  
H50      H      0.472900000000     0.352030000000     0.041360000000     0.0473917  
H51      H      0.454580000000     0.327740000000     0.114230000000     0.0615823  
H52      H      0.417830000000     0.413360000000     0.028340000000     0.0223492  
H53      H      0.419920000000     0.258390000000     0.186760000000     0.100172   
H54      H      0.454640000000     0.292500000000     0.168510000000     0.0833432  
H55      H      0.720240000000     0.851700000000     0.444540000000     0.0216415  
H56      H      0.705350000000     0.808220000000     0.675270000000     0.0205053  
H57      H      0.621890000000     0.771170000000     0.518760000000     0.0486963  
H58      H      0.706550000000     0.801190000000     0.593760000000     0.0525685  
H59      H      0.718970000000     0.846090000000     0.526980000000     0.0490483  
H60      H      0.630530000000     0.820270000000     0.576150000000     0.0636862  
H61      H      0.624010000000     0.776620000000     0.436100000000     0.02171    
H62      H      0.636310000000     0.851720000000     0.688840000000     0.101711   
H63      H      0.615610000000     0.840460000000     0.637090000000     0.0838384  
H64      H      0.715300000000     0.892060000000     0.175590000000     0.0219269  
H65      H      0.635860000000     0.857330000000     0.935000000000     0.0204599  
H66      H      0.621120000000     0.821910000000     0.083830000000     0.0482636  
H67      H      0.633920000000     0.864730000000     0.016060000000     0.052305   
H68      H      0.718580000000     0.895870000000     0.092820000000     0.0487026  
H69      H      0.711080000000     0.847680000000     0.036390000000     0.0631843  
H70      H      0.618680000000     0.817940000000     0.166510000000     0.0205752  
H71      H      0.707630000000     0.816710000000     0.923870000000     0.101805   
H72      H      0.727580000000     0.828370000000     0.976160000000     0.0838548  
H73      H      0.745390000000     0.664930000000     0.200880000000     0.0224055  
H74      H      0.752770000000     0.818590000000     0.300350000000     0.0191242  
H75      H      0.803180000000     0.781450000000     0.213600000000     0.0475388  
H76      H      0.779680000000     0.790520000000     0.278750000000     0.0519348  
H77      H      0.717460000000     0.691220000000     0.227920000000     0.0487965  
H78      H      0.698730000000     0.725240000000     0.200160000000     0.0626059  
H79      H      0.830560000000     0.754470000000     0.188200000000     0.0217421  
H80      H      0.656760000000     0.734850000000     0.191180000000     0.0847995  
H81      H      0.657760000000     0.769340000000     0.211220000000     0.101643   
H82      H      0.582320000000     0.840300000000     0.354050000000     0.0213087  
H83      H      0.593610000000     0.996370000000     0.453650000000     0.0184666  
H84      H      0.643960000000     0.956550000000     0.369440000000     0.0482594  
H85      H      0.621260000000     0.969430000000     0.429190000000     0.0521127  
H86      H      0.556310000000     0.867750000000     0.382430000000     0.0469206  
H87      H      0.537360000000     0.900170000000     0.359430000000     0.0613542  
H88      H      0.669760000000     0.927850000000     0.343890000000     0.0222278  
H89      H      0.493330000000     0.906870000000     0.356980000000     0.0832072  
H90      H      0.493440000000     0.940520000000     0.379100000000     0.100008   
H91      H      0.038540000000     0.562700000000     0.838890000000     0.0191853  
H92      H      0.953490000000     0.505390000000     0.599200000000     0.0200101  
H93      H      0.953930000000     0.479220000000     0.745310000000     0.0480029  
H94      H      0.949750000000     0.507500000000     0.681080000000     0.0514898  
H95      H      0.039970000000     0.569440000000     0.756870000000     0.0461516  
H96      H      0.050540000000     0.548020000000     0.691800000000     0.060941   
H97      H      0.952630000000     0.473750000000     0.827420000000     0.0224405  
H98      H      0.080910000000     0.565550000000     0.624940000000     0.0827002  
H99      H      0.064270000000     0.562080000000     0.570330000000     0.100229   
H100     H      0.051100000000     0.525800000000     0.108030000000     0.0223513  
H101     H      0.954650000000     0.463290000000     0.331260000000     0.0204692  
H102     H      0.961210000000     0.434310000000     0.182510000000     0.0470718  
H103     H      0.954920000000     0.459030000000     0.249500000000     0.0517553  
H104     H      0.051230000000     0.520930000000     0.189810000000     0.0475555  
H105     H      0.054800000000     0.493300000000     0.252430000000     0.0609894  
H106     H      0.961340000000     0.440550000000     0.100250000000     0.021808   
H107     H      0.066150000000     0.521220000000     0.367820000000     0.101104   
H108     H      0.082640000000     0.514530000000     0.319190000000     0.0823629  
H109     H      0.919870000000     0.665980000000     0.083490000000     0.0214174  
H110     H      0.912590000000     0.506210000000     0.006640000000     0.0205172  
H111     H      0.873160000000     0.550460000000     0.100000000000     0.0469077  
H112     H      0.885950000000     0.531440000000     0.039450000000     0.0507558  
H113     H      0.945680000000     0.641000000000     0.047460000000     0.0470336  
H114     H      0.974830000000     0.618970000000     0.047880000000     0.0617312  
H115     H      0.846090000000     0.576340000000     0.131100000000     0.0208705  
H116     H      0.016500000000     0.624160000000     0.003710000000     0.0833072  
H117     H      0.013770000000     0.593790000000     0.968420000000     0.100966   
H118     H      0.377950000000     0.149340000000     0.028010000000     0.0216167  
H119     H      0.293480000000     0.117160000000     0.788310000000     0.020056   
H120     H      0.292890000000     0.146530000000     0.933640000000     0.0480451  
H121     H      0.289620000000     0.112730000000     0.870310000000     0.0516222  
H122     H      0.379650000000     0.143930000000     0.946150000000     0.0468972  
H123     H      0.389750000000     0.176730000000     0.881150000000     0.0614978  
H124     H      0.291420000000     0.151040000000     0.015830000000     0.0219017  
H125     H      0.404530000000     0.175520000000     0.760310000000     0.0957328  
H126     H      0.420520000000     0.190130000000     0.814740000000     0.0819428  
H127     H      0.291280000000     0.150250000000     0.517200000000     0.0217657  
H128     H      0.385370000000     0.188850000000     0.297460000000     0.0200011  
H129     H      0.389430000000     0.232210000000     0.444250000000     0.0477556  
H130     H      0.384540000000     0.190890000000     0.379480000000     0.0529     
H131     H      0.292730000000     0.156580000000     0.434760000000     0.0493007  
H132     H      0.304170000000     0.204230000000     0.373970000000     0.0622861  
H133     H      0.387160000000     0.225970000000     0.526690000000     0.0217916  
H134     H      0.310550000000     0.219590000000     0.252190000000     0.100954   
H135     H      0.289650000000     0.215680000000     0.302960000000     0.0829286  
H136     H      0.416700000000     0.003790000000     0.528970000000     0.0227105  
H137     H      0.341650000000     0.086900000000     0.586180000000     0.0202911  
H138     H      0.472960000000     0.120230000000     0.542670000000     0.0471815  
H139     H      0.367020000000     0.061200000000     0.549820000000     0.0523971  
H140     H      0.389810000000     0.028790000000     0.563640000000     0.0485346  
H141     H      0.454460000000     0.125690000000     0.616230000000     0.0615301  
H142     H      0.499580000000     0.094360000000     0.509430000000     0.0202593  
H143     H      0.454610000000     0.160710000000     0.670970000000     0.0823307  
H144     H      0.420060000000     0.160590000000     0.688570000000     0.0961419  
H145     H      0.165890000000     0.424060000000     0.851440000000     0.0215159  
H146     H      0.010440000000     0.411750000000     0.954440000000     0.0187296  
H147     H      0.049750000000     0.362480000000     0.866140000000     0.0478931  
H148     H      0.037570000000     0.384350000000     0.929010000000     0.0523135  
H149     H      0.138550000000     0.449680000000     0.882110000000     0.0473276  
H150     H      0.105660000000     0.468580000000     0.858650000000     0.0616224  
H151     H      0.078170000000     0.337080000000     0.837890000000     0.0209305  
H152     H      0.064240000000     0.511430000000     0.877730000000     0.100741   
H153     H      0.098080000000     0.512070000000     0.855670000000     0.0835358  
H154     H      0.260580000000     0.338310000000     0.749250000000     0.0222764  
H155     H      0.256170000000     0.183500000000     0.660470000000     0.0191132  
H156     H      0.204850000000     0.221570000000     0.743180000000     0.0476316  
H157     H      0.228410000000     0.211200000000     0.679310000000     0.0518909  
H158     H      0.289210000000     0.312320000000     0.724010000000     0.0485703  
H159     H      0.309320000000     0.280110000000     0.754470000000     0.0624865  
H160     H      0.176750000000     0.248220000000     0.766790000000     0.02199    
H161     H      0.351780000000     0.237260000000     0.747840000000     0.102512   
H162     H      0.352100000000     0.271970000000     0.765070000000     0.0850065  
H163     H      0.450820000000     0.488890000000     0.847650000000     0.0221506  
H164     H      0.482960000000     0.523930000000     0.619200000000     0.0210288  
H165     H      0.522030000000     0.466850000000     0.754960000000     0.0488724  
H166     H      0.482010000000     0.520770000000     0.701030000000     0.0532942  
H167     H      0.443950000000     0.484200000000     0.765520000000     0.0482405  
H168     H      0.476530000000     0.430240000000     0.693740000000     0.0619757  
H169     H      0.528840000000     0.472240000000     0.837380000000     0.0216195  
H170     H      0.460510000000     0.420920000000     0.572100000000     0.101528   
H171     H      0.466520000000     0.404830000000     0.622370000000     0.0832559  
H172     H      0.484210000000     0.526240000000     0.118030000000     0.0209692  
H173     H      0.540230000000     0.486030000000     0.341040000000     0.0202445  
H174     H      0.573520000000     0.523690000000     0.192670000000     0.0471012  
H175     H      0.546350000000     0.491560000000     0.259350000000     0.0517668  
H176     H      0.488650000000     0.530260000000     0.199690000000     0.0475532  
H177     H      0.517430000000     0.561530000000     0.261850000000     0.0610513  
H178     H      0.567790000000     0.518720000000     0.110050000000     0.0215563  
H179     H      0.486350000000     0.543880000000     0.375500000000     0.100598   
H180     H      0.495420000000     0.568360000000     0.327670000000     0.0822717  
H181     H      0.810720000000     0.196690000000     0.784510000000     0.0223617  
H182     H      0.869330000000     0.158500000000     0.007690000000     0.0202624  
H183     H      0.901470000000     0.198470000000     0.861570000000     0.0466027  
H184     H      0.874680000000     0.164700000000     0.926100000000     0.0513378  
H185     H      0.814080000000     0.200410000000     0.866500000000     0.0478189  
H186     H      0.840200000000     0.230290000000     0.931160000000     0.0611691  
H187     H      0.896830000000     0.193750000000     0.779030000000     0.0199972  
H188     H      0.811580000000     0.211550000000     0.046330000000     0.102227   
H189     H      0.817990000000     0.235380000000     0.998280000000     0.0829518  
H190     H      0.822840000000     0.110090000000     0.276700000000     0.0218391  
H191     H      0.781640000000     0.154400000000     0.516190000000     0.0203454  
H192     H      0.812460000000     0.186760000000     0.374530000000     0.0481063  
H193     H      0.778190000000     0.153050000000     0.434390000000     0.0514251  
H194     H      0.818340000000     0.101810000000     0.358770000000     0.0469666  
H195     H      0.848390000000     0.124550000000     0.427270000000     0.061819   
H196     H      0.816290000000     0.193930000000     0.292830000000     0.0213088  
H197     H      0.862940000000     0.109420000000     0.495250000000     0.0837928  
H198     H      0.846950000000     0.109930000000     0.549000000000     0.101691   
H199     H      0.143060000000     0.288990000000     0.442850000000     0.0219316  
H200     H      0.198870000000     0.385850000000     0.661250000000     0.0207311  
H201     H      0.161920000000     0.389250000000     0.512160000000     0.0479016  
H202     H      0.196410000000     0.385040000000     0.579070000000     0.0529361  
H203     H      0.138440000000     0.291810000000     0.525020000000     0.0493412  
H204     H      0.103140000000     0.303840000000     0.583880000000     0.0623776  
H205     H      0.165680000000     0.385610000000     0.429840000000     0.0216805  
H206     H      0.076960000000     0.289080000000     0.654760000000     0.0831726  
H207     H      0.093880000000     0.309840000000     0.705770000000     0.10084    
H208     H      0.143920000000     0.286280000000     0.938670000000     0.021992   
H209     H      0.208640000000     0.382570000000     0.161010000000     0.0194273  
H210     H      0.237410000000     0.374030000000     0.012930000000     0.047171   
H211     H      0.212690000000     0.381810000000     0.079210000000     0.0514533  
H212     H      0.148750000000     0.285960000000     0.020460000000     0.0476041  
H213     H      0.175970000000     0.281290000000     0.083100000000     0.0608879  
H214     H      0.231290000000     0.374120000000     0.930700000000     0.0217546  
H215     H      0.154190000000     0.253960000000     0.150220000000     0.0822189  
H216     H      0.148550000000     0.271430000000     0.198740000000     0.100933   
H217     H      0.927740000000     0.261330000000     0.195020000000     0.0227451  
H218     H      0.072330000000     0.251220000000     0.294170000000     0.0186698  
H219     H      0.986560000000     0.203410000000     0.200620000000     0.04741    
H220     H      0.017820000000     0.224540000000     0.269520000000     0.0514103  
H221     H      0.981530000000     0.288210000000     0.223640000000     0.0491178  
H222     H      0.034840000000     0.307830000000     0.195890000000     0.0625263  
H223     H      0.932610000000     0.177020000000     0.173050000000     0.0217804  
H224     H      0.086450000000     0.349770000000     0.189000000000     0.0850138  
H225     H      0.119520000000     0.348040000000     0.208740000000     0.101605   
H226     H      0.410590000000     0.408090000000     0.442980000000     0.0209951  
H227     H      0.259240000000     0.416450000000     0.364230000000     0.0184062  
H228     H      0.362790000000     0.471280000000     0.392440000000     0.0463795  
H229     H      0.310040000000     0.441670000000     0.400160000000     0.0509131  
H230     H      0.357570000000     0.380830000000     0.411970000000     0.0475976  
H231     H      0.327250000000     0.369070000000     0.347810000000     0.061519   
H232     H      0.414410000000     0.497170000000     0.426800000000     0.0195415  
H233     H      0.289260000000     0.329670000000     0.300760000000     0.0845055  
H234     H      0.255240000000     0.330020000000     0.281410000000     0.101676   
H235     H      0.524940000000     0.964130000000     0.841640000000     0.0216352  
H236     H      0.558770000000     0.049460000000     0.602190000000     0.0200571  
H237     H      0.529090000000     0.049670000000     0.746570000000     0.0480933  
H238     H      0.562800000000     0.052460000000     0.684100000000     0.0513985  
H239     H      0.529270000000     0.961570000000     0.759550000000     0.046713   
H240     H      0.497710000000     0.952330000000     0.693020000000     0.0616032  
H241     H      0.525510000000     0.051920000000     0.828730000000     0.022322   
H242     H      0.484210000000     0.922160000000     0.625680000000     0.0835482  
H243     H      0.499100000000     0.938740000000     0.571540000000     0.101426   
H244     H      0.487190000000     0.047630000000     0.101850000000     0.0205959  
H245     H      0.451540000000     0.961170000000     0.340780000000     0.0168263  
H246     H      0.481240000000     0.961050000000     0.196400000000     0.0475655  
H247     H      0.447580000000     0.958360000000     0.258790000000     0.0506547  
H248     H      0.482060000000     0.049690000000     0.183830000000     0.0463598  
H249     H      0.513180000000     0.058410000000     0.250360000000     0.0616654  
H250     H      0.485550000000     0.959290000000     0.114300000000     0.0221209  
H251     H      0.511770000000     0.071740000000     0.371920000000     0.10043    
H252     H      0.526730000000     0.088450000000     0.317830000000     0.083258   
H253     H      0.601870000000     0.096360000000     0.002700000000     0.0215343  
H254     H      0.753040000000     0.089640000000     0.080240000000     0.0206768  
H255     H      0.647720000000     0.031940000000     0.056120000000     0.0484669  
H256     H      0.702320000000     0.064280000000     0.043520000000     0.0525003  
H257     H      0.654400000000     0.122850000000     0.035940000000     0.047049   
H258     H      0.679590000000     0.129420000000     0.108640000000     0.061249   
H259     H      0.595940000000     0.006430000000     0.021450000000     0.0227203  
H260     H      0.748790000000     0.164380000000     0.181350000000     0.100741   
H261     H      0.714570000000     0.164740000000     0.163140000000     0.0830551  
H262     H      0.207010000000     0.819120000000     0.657460000000     0.0216994  
H263     H      0.227420000000     0.855060000000     0.423240000000     0.0187915  
H264     H      0.188170000000     0.898220000000     0.580240000000     0.0481231  
H265     H      0.238390000000     0.863740000000     0.504000000000     0.0520555  
H266     H      0.208070000000     0.821560000000     0.574600000000     0.0489967  
H267     H      0.144820000000     0.847550000000     0.527510000000     0.0630648  
H268     H      0.188120000000     0.895940000000     0.663120000000     0.019638   
H269     H      0.107760000000     0.826830000000     0.468840000000     0.0834711  
H270     H      0.115250000000     0.814480000000     0.416470000000     0.100907   
H271     H      0.159070000000     0.782320000000     0.926450000000     0.0213104  
H272     H      0.196770000000     0.820560000000     0.154310000000     0.0204544  
H273     H      0.139060000000     0.855990000000     0.016740000000     0.0494476  
H274     H      0.194210000000     0.819990000000     0.072260000000     0.0533779  
H275     H      0.155120000000     0.776880000000     0.008840000000     0.0479214  
H276     H      0.100780000000     0.807180000000     0.078280000000     0.0622343  
H277     H      0.143950000000     0.861540000000     0.934060000000     0.0220364  
H278     H      0.074510000000     0.794630000000     0.148940000000     0.0829889  
H279     H      0.090920000000     0.789170000000     0.199190000000     0.101139   
H280     H      0.268210000000     0.931290000000     0.833950000000     0.0223378  
H281     H      0.421290000000     0.924490000000     0.906230000000     0.0187867  
H282     H      0.317030000000     0.868130000000     0.880100000000     0.0468577  
H283     H      0.370090000000     0.898920000000     0.871030000000     0.0512108  
H284     H      0.321280000000     0.958410000000     0.864800000000     0.0481791  
H285     H      0.350800000000     0.968370000000     0.930190000000     0.0619858  
H286     H      0.265180000000     0.842330000000     0.846250000000     0.021518   
H287     H      0.388170000000     0.006640000000     0.979210000000     0.0850329  
H288     H      0.422730000000     0.006690000000     0.996820000000     0.10108    
H289     H      0.861790000000     0.718000000000     0.015410000000     0.0219687  
H290     H      0.803600000000     0.622640000000     0.792860000000     0.0185301  
H291     H      0.770520000000     0.629730000000     0.938090000000     0.0471849  
H292     H      0.797670000000     0.623260000000     0.874080000000     0.0519745  
H293     H      0.857820000000     0.719300000000     0.933640000000     0.0477384  
H294     H      0.831340000000     0.723250000000     0.869240000000     0.0610552  
H295     H      0.775820000000     0.628660000000     0.020370000000     0.0217385  
H296     H      0.860340000000     0.733650000000     0.754100000000     0.101378   
H297     H      0.853530000000     0.750790000000     0.802110000000     0.0825619  
H298     H      0.808530000000     0.613270000000     0.290470000000     0.0220943  
H299     H      0.867650000000     0.711000000000     0.511290000000     0.0200139  
H300     H      0.900530000000     0.701510000000     0.366640000000     0.0472212  
H301     H      0.873470000000     0.709450000000     0.430000000000     0.0521179  
H302     H      0.812110000000     0.613080000000     0.372380000000     0.0479769  
H303     H      0.838250000000     0.609230000000     0.437170000000     0.0613935  
H304     H      0.895670000000     0.701480000000     0.284160000000     0.0214617  
H305     H      0.815320000000     0.582510000000     0.504530000000     0.0832282  
H306     H      0.808870000000     0.600540000000     0.551810000000     0.102491   
H307     H      0.599970000000     0.505600000000     0.512060000000     0.0217272  
H308     H      0.750400000000     0.663870000000     0.587860000000     0.0209704  
H309     H      0.644290000000     0.614810000000     0.569460000000     0.0486171  
H310     H      0.699020000000     0.637830000000     0.553300000000     0.0527059  
H311     H      0.652540000000     0.531890000000     0.545290000000     0.0472658  
H312     H      0.678290000000     0.550610000000     0.618710000000     0.0611822  
H313     H      0.592370000000     0.588280000000     0.535080000000     0.0229963  
H314     H      0.714320000000     0.551130000000     0.672120000000     0.082907   
H315     H      0.748560000000     0.586060000000     0.689330000000     0.100677   
H316     H      0.929280000000     0.757790000000     0.685040000000     0.0195887  
H317     H      0.077450000000     0.751520000000     0.782790000000     0.0184252  
H318     H      0.986010000000     0.698500000000     0.703700000000     0.0480279  
H319     H      0.022610000000     0.722990000000     0.760460000000     0.0517336  
H320     H      0.983510000000     0.785830000000     0.710210000000     0.0466057  
H321     H      0.034880000000     0.805660000000     0.689210000000     0.0606774  
H322     H      0.930900000000     0.670850000000     0.681670000000     0.0227113  
H323     H      0.085100000000     0.850310000000     0.685270000000     0.0832651  
H324     H      0.119270000000     0.851080000000     0.706220000000     0.100437   
N1       N      0.792260000000     0.083130000000     0.698000000000    -0.2258     
N2       N      0.713180000000     0.922970000000     0.774550000000    -0.207152   
N3       N      0.836980000000     0.091920000000     0.743570000000    -0.219812   
N4       N      0.961390000000     0.413440000000     0.514980000000    -0.224675   
N5       N      0.880880000000     0.255580000000     0.600400000000    -0.206363   
N6       N      0.003930000000     0.423430000000     0.566590000000    -0.219587   
N7       N      0.117250000000     0.741130000000     0.325080000000    -0.226135   
N8       N      0.043470000000     0.588500000000     0.427610000000    -0.207274   
N9       N      0.149190000000     0.725690000000     0.281700000000    -0.219112   
N10      N      0.556060000000     0.590960000000     0.942010000000    -0.225389   
N11      N      0.629530000000     0.743200000000     0.838230000000    -0.207123   
N12      N      0.525350000000     0.607660000000     0.985940000000    -0.219278   
N13      N      0.214090000000     0.922270000000     0.269620000000    -0.225602   
N14      N      0.295320000000     0.082700000000     0.193730000000    -0.207078   
N15      N      0.261250000000     0.932230000000     0.309570000000    -0.219775   
N16      N      0.382690000000     0.261040000000     0.120920000000    -0.225743   
N17      N      0.461190000000     0.413180000000     0.016730000000    -0.206895   
N18      N      0.430660000000     0.276530000000     0.162810000000    -0.219255   
N19      N      0.668020000000     0.819620000000     0.673640000000    -0.22501    
N20      N      0.672000000000     0.815150000000     0.434390000000    -0.207425   
N21      N      0.631350000000     0.838390000000     0.659100000000    -0.218581   
N22      N      0.673860000000     0.846890000000     0.937780000000    -0.224635   
N23      N      0.667010000000     0.854130000000     0.177080000000    -0.20767    
N24      N      0.711740000000     0.829840000000     0.953640000000    -0.218722   
N25      N      0.709970000000     0.788350000000     0.263540000000    -0.22591    
N26      N      0.790040000000     0.707700000000     0.192580000000    -0.207447   
N27      N      0.667640000000     0.754720000000     0.212430000000    -0.21951    
N28      N      0.549330000000     0.963340000000     0.422820000000    -0.22641    
N29      N      0.627940000000     0.882030000000     0.346680000000    -0.207274   
N30      N      0.504670000000     0.927140000000     0.377380000000    -0.219903   
N31      N      0.003930000000     0.525020000000     0.597600000000    -0.22549    
N32      N      0.995830000000     0.517470000000     0.839240000000    -0.207203   
N33      N      0.060570000000     0.555600000000     0.604650000000    -0.218903   
N34      N      0.004790000000     0.482930000000     0.339990000000    -0.223482   
N35      N      0.005970000000     0.483880000000     0.098010000000    -0.206377   
N36      N      0.062010000000     0.509050000000     0.337150000000    -0.21852    
N37      N      0.958740000000     0.547910000000     0.005470000000    -0.225135   
N38      N      0.880980000000     0.622990000000     0.109620000000    -0.207929   
N39      N      0.004240000000     0.600040000000     0.995590000000    -0.217991   
N40      N      0.343640000000     0.149720000000     0.786640000000    -0.225702   
N41      N      0.334910000000     0.151230000000     0.027960000000    -0.207061   
N42      N      0.400330000000     0.178510000000     0.794290000000    -0.218549   
N43      N      0.344950000000     0.194840000000     0.287000000000    -0.225133   
N44      N      0.339260000000     0.187260000000     0.527970000000    -0.207001   
N45      N      0.306080000000     0.211630000000     0.285830000000    -0.218604   
N46      N      0.383180000000     0.121890000000     0.621380000000    -0.22574    
N47      N      0.460250000000     0.047160000000     0.517050000000    -0.207513   
N48      N      0.430810000000     0.153200000000     0.664690000000    -0.218799   
N49      N      0.042820000000     0.456090000000     0.923050000000    -0.226188   
N50      N      0.124090000000     0.378700000000     0.842250000000    -0.207593   
N51      N      0.078020000000     0.500620000000     0.876400000000    -0.219761   
N52      N      0.299020000000     0.215510000000     0.695850000000    -0.225695   
N53      N      0.216570000000     0.295250000000     0.759960000000    -0.207198   
N54      N      0.341420000000     0.251400000000     0.745210000000    -0.219602   
N55      N      0.480970000000     0.479260000000     0.607710000000    -0.224661   
N56      N      0.490730000000     0.481530000000     0.848540000000    -0.206981   
N57      N      0.468690000000     0.424780000000     0.605630000000    -0.218481   
N58      N      0.523050000000     0.518710000000     0.349190000000    -0.224051   
N59      N      0.525350000000     0.521640000000     0.107920000000    -0.207227   
N60      N      0.499460000000     0.552160000000     0.345610000000    -0.218462   
N61      N      0.849990000000     0.189230000000     0.017330000000    -0.223944   
N62      N      0.853120000000     0.194200000000     0.775660000000    -0.206828   
N63      N      0.823630000000     0.220100000000     0.015660000000    -0.218699   
N64      N      0.817590000000     0.141170000000     0.520110000000    -0.224707   
N65      N      0.820230000000     0.152770000000     0.278630000000    -0.206702   
N66      N      0.849910000000     0.116800000000     0.514850000000    -0.218844   
N67      N      0.152760000000     0.344930000000     0.671170000000    -0.224776   
N68      N      0.155160000000     0.337200000000     0.430300000000    -0.206709   
N69      N      0.097350000000     0.305600000000     0.672000000000    -0.218498   
N70      N      0.188060000000     0.332260000000     0.170110000000    -0.224871   
N71      N      0.186890000000     0.330520000000     0.928620000000    -0.206842   
N72      N      0.160430000000     0.274910000000     0.167940000000    -0.218903   
N73      N      0.085530000000     0.295070000000     0.259820000000    -0.224911   
N74      N      0.926050000000     0.217120000000     0.182100000000    -0.206232   
N75      N      0.095100000000     0.338410000000     0.209930000000    -0.219141   
N76      N      0.262590000000     0.377360000000     0.336730000000    -0.225053   
N77      N      0.416470000000     0.454620000000     0.437180000000    -0.206965   
N78      N      0.274370000000     0.339240000000     0.303810000000    -0.219907   
N79      N      0.525490000000     0.999410000000     0.599320000000    -0.224684   
N80      N      0.524450000000     0.007970000000     0.841350000000    -0.20605    
N81      N      0.496090000000     0.942590000000     0.605690000000    -0.218903   
N82      N      0.484980000000     0.011160000000     0.343760000000    -0.22519    
N83      N      0.487260000000     0.003580000000     0.101960000000    -0.206497   
N84      N      0.514720000000     0.067980000000     0.337700000000    -0.218756   
N85      N      0.746790000000     0.125020000000     0.115060000000    -0.224868   
N86      N      0.594810000000     0.049410000000     0.009970000000    -0.206171   
N87      N      0.730720000000     0.156960000000     0.157330000000    -0.219315   
N88      N      0.179240000000     0.845110000000     0.427860000000    -0.225154   
N89      N      0.196650000000     0.856760000000     0.666310000000    -0.207722   
N90      N      0.124680000000     0.828080000000     0.445760000000    -0.21863    
N91      N      0.150320000000     0.814370000000     0.165080000000    -0.225329   
N92      N      0.152480000000     0.822760000000     0.924230000000    -0.207357   
N93      N      0.094780000000     0.798050000000     0.166040000000    -0.218608   
N94      N      0.416800000000     0.962050000000     0.937040000000    -0.225198   
N95      N      0.262690000000     0.884820000000     0.837890000000    -0.206588   
N96      N      0.403610000000     0.997860000000     0.974420000000    -0.219784   
N97      N      0.822750000000     0.672770000000     0.783260000000    -0.225343   
N98      N      0.819550000000     0.672860000000     0.023870000000    -0.207504   
N99      N      0.848270000000     0.729960000000     0.784780000000    -0.219014   
N100     N      0.847860000000     0.660900000000     0.521870000000    -0.225233   
N101     N      0.851390000000     0.657780000000     0.281300000000    -0.207683   
N102     N      0.821060000000     0.603630000000     0.521370000000    -0.218952   
N103     N      0.745250000000     0.622670000000     0.622840000000    -0.22468    
N104     N      0.592130000000     0.544860000000     0.521270000000    -0.206119   
N105     N      0.730220000000     0.575070000000     0.665780000000    -0.219249   
N106     N      0.087740000000     0.795340000000     0.751070000000    -0.225184   
N107     N      0.925980000000     0.712220000000     0.681610000000    -0.206699   
N108     N      0.094650000000     0.839410000000     0.705350000000    -0.219875   
O1       O      0.842420000000     0.641930000000     0.595390000000    -0.562573   
O2       O      0.827050000000     0.646290000000     0.721130000000    -0.56296    
O3       O      0.790410000000     0.622380000000     0.646160000000    -0.559419   
O4       O      0.878940000000     0.665840000000     0.669960000000    -0.553467   
O5       O      0.880600000000     0.712000000000     0.659720000000    -0.56113    
O6       O      0.792650000000     0.668570000000     0.634370000000    -0.560466   
O7       O      0.828370000000     0.692070000000     0.709760000000    -0.562588   
O8       O      0.844640000000     0.688140000000     0.583990000000    -0.560264   
O9       O      0.188770000000     0.827060000000     0.731070000000    -0.559081   
O10      O      0.163300000000     0.808500000000     0.854750000000    -0.561091   
O11      O      0.132910000000     0.795570000000     0.774020000000    -0.558014   
O12      O      0.218750000000     0.839710000000     0.812160000000    -0.558595   
O13      O      0.217070000000     0.884530000000     0.816680000000    -0.554586   
O14      O      0.131190000000     0.840390000000     0.778320000000    -0.55829    
O15      O      0.161160000000     0.853050000000     0.859760000000    -0.556416   
O16      O      0.186600000000     0.871620000000     0.735910000000    -0.561397   
O17      O      0.516040000000     0.984630000000     0.912200000000    -0.556643   
O18      O      0.494450000000     0.980800000000     0.037560000000    -0.556694   
O19      O      0.461830000000     0.961500000000     0.958510000000    -0.559489   
O20      O      0.548670000000     0.003940000000     0.991270000000    -0.557091   
O21      O      0.550760000000     0.050510000000     0.984100000000    -0.554089   
O22      O      0.463320000000     0.007880000000     0.953630000000    -0.55658    
O23      O      0.496850000000     0.027570000000     0.031490000000    -0.558046   
O24      O      0.517170000000     0.030780000000     0.905680000000    -0.554466   
O25      O      0.160870000000     0.312130000000     0.367610000000    -0.556788   
O26      O      0.181840000000     0.311990000000     0.243050000000    -0.56377    
O27      O      0.215100000000     0.332180000000     0.321260000000    -0.554888   
O28      O      0.127990000000     0.292250000000     0.288810000000    -0.55834    
O29      O      0.132190000000     0.339610000000     0.280240000000    -0.560611   
O30      O      0.219020000000     0.379420000000     0.311890000000    -0.560626   
O31      O      0.185380000000     0.358930000000     0.233450000000    -0.561541   
O32      O      0.165630000000     0.359780000000     0.358750000000    -0.556102   
O33      O      0.828860000000     0.139650000000     0.206510000000    -0.554597   
O34      O      0.846450000000     0.159210000000     0.080370000000    -0.556223   
O35      O      0.881630000000     0.172070000000     0.157180000000    -0.556899   
O36      O      0.793950000000     0.126720000000     0.129720000000    -0.559111   
O37      O      0.791380000000     0.170730000000     0.138880000000    -0.560271   
O38      O      0.879100000000     0.216070000000     0.167700000000    -0.55426    
O39      O      0.844550000000     0.203450000000     0.090560000000    -0.560508   
O40      O      0.825890000000     0.183490000000     0.215870000000    -0.561001   
O41      O      0.516570000000     0.487790000000     0.412490000000    -0.554765   
O42      O      0.494490000000     0.467700000000     0.537440000000    -0.55705    
O43      O      0.462180000000     0.455090000000     0.458260000000    -0.55512    
O44      O      0.549040000000     0.500210000000     0.492080000000    -0.552904   
O45      O      0.545750000000     0.543760000000     0.502800000000    -0.557216   
O46      O      0.460340000000     0.499810000000     0.462940000000    -0.561782   
O47      O      0.489620000000     0.510490000000     0.544200000000    -0.562056   
O48      O      0.516130000000     0.532860000000     0.421650000000    -0.563499   
O49      O      0.183020000000     0.364960000000     0.736240000000    -0.558757   
O50      O      0.201670000000     0.356450000000     0.859570000000    -0.556873   
O51      O      0.214910000000     0.340400000000     0.777960000000    -0.5572     
O52      O      0.169910000000     0.380800000000     0.818030000000    -0.559156   
O53      O      0.125300000000     0.334080000000     0.819880000000    -0.561033   
O54      O      0.170810000000     0.293470000000     0.783570000000    -0.559618   
O55      O      0.156730000000     0.310140000000     0.863840000000    -0.558632   
O56      O      0.139570000000     0.317580000000     0.739510000000    -0.56069    
O57      O      0.365990000000     0.181250000000     0.723350000000    -0.565617   
O58      O      0.363200000000     0.200400000000     0.598490000000    -0.557242   
O59      O      0.344140000000     0.213860000000     0.677690000000    -0.560605   
O60      O      0.384970000000     0.167900000000     0.644670000000    -0.562999   
O61      O      0.338090000000     0.124150000000     0.636700000000    -0.560049   
O62      O      0.297280000000     0.169900000000     0.671110000000    -0.560817   
O63      O      0.315910000000     0.156890000000     0.591690000000    -0.558196   
O64      O      0.319370000000     0.137150000000     0.716170000000    -0.560033   
O65      O      0.020500000000     0.532320000000     0.909190000000    -0.564056   
O66      O      0.027540000000     0.513440000000     0.032960000000    -0.557718   
O67      O      0.044540000000     0.500770000000     0.951420000000    -0.565562   
O68      O      0.003670000000     0.545160000000     0.990320000000    -0.567092   
O69      O      0.956870000000     0.501530000000     0.982750000000    -0.555017   
O70      O      0.998160000000     0.455800000000     0.948890000000    -0.55433    
O71      O      0.980170000000     0.469800000000     0.028750000000    -0.553675   
O72      O      0.974610000000     0.487060000000     0.903660000000    -0.556152   
O73      O      0.691020000000     0.867060000000     0.247470000000    -0.559597   
O74      O      0.694610000000     0.846500000000     0.371350000000    -0.559317   
O75      O      0.712520000000     0.833670000000     0.291330000000    -0.56113    
O76      O      0.672750000000     0.880140000000     0.327500000000    -0.556794   
O77      O      0.625650000000     0.836230000000     0.321900000000    -0.561574   
O78      O      0.665290000000     0.790350000000     0.283160000000    -0.561881   
O79      O      0.647550000000     0.802700000000     0.364260000000    -0.558445   
O80      O      0.643320000000     0.824060000000     0.240890000000    -0.561842   
O81      O      0.866680000000     0.683960000000     0.212500000000    -0.560205   
O82      O      0.849110000000     0.692810000000     0.089050000000    -0.562328   
O83      O      0.835720000000     0.708980000000     0.169970000000    -0.562143   
O84      O      0.879980000000     0.667810000000     0.130810000000    -0.561852   
O85      O      0.835700000000     0.620940000000     0.136250000000    -0.557409   
O86      O      0.790920000000     0.662450000000     0.172640000000    -0.557585   
O87      O      0.804900000000     0.645790000000     0.092080000000    -0.557875   
O88      O      0.821650000000     0.637710000000     0.216280000000    -0.560578   
O89      O      0.516940000000     0.031980000000     0.407090000000    -0.558687   
O90      O      0.537740000000     0.025170000000     0.529920000000    -0.558359   
O91      O      0.549470000000     0.008040000000     0.448080000000    -0.55769    
O92      O      0.505240000000     0.049140000000     0.488920000000    -0.559317   
O93      O      0.461240000000     0.002250000000     0.495950000000    -0.559599   
O94      O      0.504850000000     0.961430000000     0.452420000000    -0.564479   
O95      O      0.493950000000     0.978140000000     0.535550000000    -0.557915   
O96      O      0.472360000000     0.985660000000     0.413350000000    -0.561966   
O97      O      0.313220000000     0.159730000000     0.092470000000    -0.557041   
O98      O      0.318920000000     0.182530000000     0.217530000000    -0.560461   
O99      O      0.337200000000     0.214480000000     0.138060000000    -0.562246   
O100     O      0.294820000000     0.127780000000     0.172070000000    -0.558514   
O101     O      0.341080000000     0.129150000000     0.176810000000    -0.556417   
O102     O      0.383520000000     0.216140000000     0.143440000000    -0.560012   
O103     O      0.365230000000     0.184350000000     0.222510000000    -0.562982   
O104     O      0.359550000000     0.161290000000     0.097800000000    -0.558626   
O105     O      0.495710000000     0.514370000000     0.043480000000    -0.564823   
O106     O      0.477560000000     0.492650000000     0.918700000000    -0.560955   
O107     O      0.463350000000     0.460050000000     0.997720000000    -0.559471   
O108     O      0.509940000000     0.546920000000     0.964940000000    -0.562194   
O109     O      0.553590000000     0.543480000000     0.958160000000    -0.556977   
O110     O      0.507110000000     0.456640000000     0.991880000000    -0.556113   
O111     O      0.521020000000     0.488750000000     0.912550000000    -0.554981   
O112     O      0.539590000000     0.511200000000     0.037750000000    -0.553696   
O113     O      0.151500000000     0.841810000000     0.362170000000    -0.562553   
O114     O      0.136100000000     0.824490000000     0.235650000000    -0.562439   
O115     O      0.120130000000     0.789130000000     0.312110000000    -0.564634   
O116     O      0.167290000000     0.877030000000     0.285800000000    -0.560364   
O117     O      0.211400000000     0.874210000000     0.281670000000    -0.558409   
O118     O      0.163820000000     0.785810000000     0.305190000000    -0.560711   
O119     O      0.180070000000     0.821760000000     0.229890000000    -0.562244   
O120     O      0.194680000000     0.837590000000     0.356840000000    -0.562268   
O121     O      0.979710000000     0.510780000000     0.527060000000    -0.556297   
O122     O      0.978780000000     0.487080000000     0.403090000000    -0.555728   
O123     O      0.959060000000     0.455550000000     0.483570000000    -0.558194   
O124     O      0.998930000000     0.541730000000     0.446890000000    -0.557553   
O125     O      0.046160000000     0.545690000000     0.455390000000    -0.562078   
O126     O      0.006220000000     0.459810000000     0.493960000000    -0.558003   
O127     O      0.025420000000     0.490250000000     0.412980000000    -0.55988    
O128     O      0.027150000000     0.515440000000     0.535880000000    -0.563883   
O129     O      0.804330000000     0.155060000000     0.588290000000    -0.560527   
O130     O      0.823250000000     0.184160000000     0.710530000000    -0.558204   
O131     O      0.835740000000     0.212200000000     0.627790000000    -0.556184   
O132     O      0.791940000000     0.127240000000     0.670850000000    -0.557945   
O133     O      0.836850000000     0.125790000000     0.668300000000    -0.561673   
O134     O      0.880320000000     0.210190000000     0.623740000000    -0.555892   
O135     O      0.868160000000     0.182750000000     0.707000000000    -0.557934   
O136     O      0.848780000000     0.152990000000     0.584690000000    -0.556546   
O137     O      0.649760000000     0.839750000000     0.867760000000    -0.561406   
O138     O      0.645290000000     0.823190000000     0.740850000000    -0.562956   
O139     O      0.627240000000     0.787500000000     0.816960000000    -0.556031   
O140     O      0.668050000000     0.875830000000     0.791610000000    -0.557405   
O141     O      0.714790000000     0.878110000000     0.793750000000    -0.560573   
O142     O      0.674210000000     0.790370000000     0.820730000000    -0.561199   
O143     O      0.691990000000     0.825700000000     0.743700000000    -0.559872   
O144     O      0.696880000000     0.843190000000     0.870680000000    -0.560776   
V1       V      0.834610000000     0.642270000000     0.658640000000     1.38974    
V2       V      0.836680000000     0.692030000000     0.646480000000     1.39846    
V3       V      0.175990000000     0.815940000000     0.792770000000     1.3992     
V4       V      0.173940000000     0.864180000000     0.797980000000     1.39014    
V5       V      0.505180000000     0.980890000000     0.975100000000     1.39479    
V6       V      0.507130000000     0.031040000000     0.968400000000     1.385      
V7       V      0.171320000000     0.310280000000     0.305680000000     1.38556    
V8       V      0.175760000000     0.361330000000     0.295780000000     1.39572    
V9       V      0.837870000000     0.147690000000     0.143060000000     1.39011    
V10      V      0.835170000000     0.195190000000     0.153630000000     1.39083    
V11      V      0.505750000000     0.475960000000     0.474730000000     1.37822    
V12      V      0.502920000000     0.523480000000     0.483270000000     1.40321    
V13      V      0.194150000000     0.362510000000     0.797720000000     1.39341    
V14      V      0.146360000000     0.311960000000     0.801830000000     1.39842    
V15      V      0.366410000000     0.192620000000     0.661280000000     1.39516    
V16      V      0.315790000000     0.145280000000     0.653610000000     1.39697    
V17      V      0.025890000000     0.524630000000     0.971290000000     1.40773    
V18      V      0.975560000000     0.476730000000     0.965960000000     1.38007    
V19      V      0.694580000000     0.858610000000     0.309760000000     1.39743    
V20      V      0.643590000000     0.811610000000     0.302280000000     1.40012    
V21      V      0.859650000000     0.690220000000     0.150520000000     1.40718    
V22      V      0.811510000000     0.639850000000     0.154430000000     1.39464    
V23      V      0.529110000000     0.030440000000     0.468290000000     1.39062    
V24      V      0.481370000000     0.980010000000     0.474630000000     1.39651    
V25      V      0.314200000000     0.171040000000     0.154820000000     1.3949     
V26      V      0.364160000000     0.172750000000     0.160380000000     1.39431    
V27      V      0.484920000000     0.503610000000     0.981390000000     1.40736    
V28      V      0.532090000000     0.499900000000     0.974810000000     1.38286    
V29      V      0.142030000000     0.833260000000     0.299140000000     1.39762    
V30      V      0.189280000000     0.829800000000     0.293090000000     1.39315    
V31      V      0.977180000000     0.498500000000     0.464780000000     1.38951    
V32      V      0.028060000000     0.502860000000     0.474900000000     1.39186    
V33      V      0.812070000000     0.169780000000     0.649460000000     1.39556    
V34      V      0.860290000000     0.167860000000     0.645700000000     1.3876     
V35      V      0.645730000000     0.831490000000     0.804150000000     1.39223    
V36      V      0.696300000000     0.834410000000     0.807340000000     1.39771    


