data_structure

_audit_creation_method RASPA-1.0
_audit_creation_date 2023-6-5
_audit_author_name 'Poobodin Mano'

_cell_length_a    48.8929
_cell_length_b    48.8653
_cell_length_c    29.2886
_cell_angle_alpha 89.9828
_cell_angle_beta  90.0174
_cell_angle_gamma 119.981
_cell_volume      60612

_symmetry_cell_setting          triclinic
_symmetry_space_group_name_Hall 'P 1'
_symmetry_space_group_name_H-M  'P 1'
_symmetry_Int_Tables_number     1

_symmetry_equiv_pos_as_xyz 'x,y,z'

loop_
_atom_site_label
_atom_site_type_symbol
_atom_site_fract_x
_atom_site_fract_y
_atom_site_fract_z
_atom_site_charge
C1       C      0.850730000000     0.669130000000     0.558890000000     0.479127   
C2       C      0.820620000000     0.663280000000     0.725960000000     0.478839   
C3       C      0.778110000000     0.638120000000     0.618470000000     0.478652   
C4       C      0.893310000000     0.694420000000     0.666520000000     0.478719   
C5       C      0.154600000000     0.822770000000     0.892680000000     0.478972   
C6       C      0.184140000000     0.847230000000     0.725450000000     0.478841   
C7       C      0.227070000000     0.865140000000     0.832660000000     0.478621   
C8       C      0.111750000000     0.804980000000     0.785330000000     0.478858   
C9       C      0.488470000000     0.998780000000     0.059020000000     0.479036   
C10      C      0.516690000000     0.001390000000     0.891620000000     0.478936   
C11      C      0.560450000000     0.027030000000     0.998090000000     0.478274   
C12      C      0.444800000000     0.973150000000     0.952510000000     0.478505   
C13      C      0.155230000000     0.334630000000     0.391410000000     0.47938    
C14      C      0.183320000000     0.337870000000     0.223970000000     0.479901   
C15      C      0.226980000000     0.363780000000     0.330570000000     0.478632   
C16      C      0.111320000000     0.308660000000     0.284970000000     0.478513   
C17      C      0.820830000000     0.154790000000     0.225290000000     0.478542   
C18      C      0.850670000000     0.179910000000     0.058160000000     0.478395   
C19      C      0.893430000000     0.198240000000     0.165550000000     0.478185   
C20      C      0.778160000000     0.136460000000     0.117970000000     0.478544   
C21      C      0.517920000000     0.512300000000     0.391080000000     0.479172   
C22      C      0.487610000000     0.488070000000     0.558110000000     0.478989   
C23      C      0.445170000000     0.470960000000     0.450310000000     0.478512   
C24      C      0.560310000000     0.529490000000     0.498680000000     0.47838    
C25      C      0.160110000000     0.340980000000     0.724020000000     0.479802   
C26      C      0.182400000000     0.332720000000     0.891190000000     0.479422   
C27      C      0.199750000000     0.307690000000     0.783610000000     0.48004    
C28      C      0.142890000000     0.366010000000     0.831490000000     0.480083   
C29      C      0.337430000000     0.154820000000     0.724760000000     0.479183   
C30      C      0.332330000000     0.179050000000     0.557430000000     0.479132   
C31      C      0.306890000000     0.196630000000     0.664470000000     0.479421   
C32      C      0.362840000000     0.137140000000     0.617840000000     0.479363   
C33      C      0.000560000000     0.514160000000     0.892420000000     0.480307   
C34      C      0.008830000000     0.491910000000     0.059600000000     0.480248   
C35      C      0.033920000000     0.474730000000     0.952160000000     0.479965   
C36      C      0.975490000000     0.531500000000     0.999960000000     0.47943    
C37      C      0.664810000000     0.845510000000     0.225510000000     0.478885   
C38      C      0.672400000000     0.822010000000     0.392470000000     0.478996   
C39      C      0.696450000000     0.804030000000     0.284590000000     0.479427   
C40      C      0.640720000000     0.863310000000     0.333400000000     0.479693   
C41      C      0.846830000000     0.664060000000     0.225930000000     0.479237   
C42      C      0.822600000000     0.669180000000     0.058610000000     0.479207   
C43      C      0.804920000000     0.694590000000     0.165580000000     0.479453   
C44      C      0.864380000000     0.638620000000     0.118880000000     0.479432   
C45      C      0.490240000000     0.004330000000     0.391790000000     0.478833   
C46      C      0.513710000000     0.996810000000     0.558780000000     0.478979   
C47      C      0.531490000000     0.972640000000     0.450950000000     0.479357   
C48      C      0.472270000000     0.028470000000     0.499600000000     0.479418   
C49      C      0.331560000000     0.152260000000     0.057410000000     0.479044   
C50      C      0.337420000000     0.182370000000     0.224480000000     0.479088   
C51      C      0.362680000000     0.224950000000     0.116880000000     0.479259   
C52      C      0.306420000000     0.109720000000     0.164890000000     0.479004   
C53      C      0.515550000000     0.515790000000     0.058400000000     0.478858   
C54      C      0.491140000000     0.486430000000     0.891110000000     0.478985   
C55      C      0.473290000000     0.443440000000     0.998330000000     0.479246   
C56      C      0.533520000000     0.558850000000     0.951340000000     0.478873   
C57      C      0.156290000000     0.819370000000     0.225690000000     0.478547   
C58      C      0.180550000000     0.849590000000     0.392750000000     0.479064   
C59      C      0.197810000000     0.892050000000     0.285190000000     0.479126   
C60      C      0.139100000000     0.776870000000     0.333430000000     0.479188   
C61      C      0.005690000000     0.514960000000     0.559670000000     0.4802     
C62      C      0.002480000000     0.486940000000     0.392200000000     0.479758   
C63      C      0.976470000000     0.442960000000     0.498550000000     0.478267   
C64      C      0.031650000000     0.558670000000     0.453140000000     0.479109   
C65      C      0.847720000000     0.182290000000     0.725230000000     0.478733   
C66      C      0.822590000000     0.152460000000     0.558100000000     0.47845    
C67      C      0.804220000000     0.109760000000     0.665420000000     0.479002   
C68      C      0.866050000000     0.225050000000     0.617870000000     0.479243   
C69      C      0.669460000000     0.848490000000     0.892660000000     0.479112   
C70      C      0.666930000000     0.820330000000     0.725240000000     0.478999   
C71      C      0.641350000000     0.776620000000     0.831690000000     0.479392   
C72      C      0.695040000000     0.892300000000     0.786220000000     0.479161   
C73      C      0.706860000000     0.966000000000     0.735270000000    -0.0893219  
C74      C      0.739880000000     0.984900000000     0.736260000000     0.0345549  
C75      C      0.757250000000     0.972330000000     0.756460000000    -0.0898697  
C76      C      0.741860000000     0.941500000000     0.773340000000     0.0742295  
C77      C      0.692180000000     0.935460000000     0.753450000000     0.0741978  
C78      C      0.756220000000     0.017360000000     0.716160000000     0.0344163  
C79      C      0.786320000000     0.029880000000     0.696590000000    -0.0897591  
C80      C      0.801880000000     0.060670000000     0.679520000000     0.0742027  
C81      C      0.758070000000     0.066770000000     0.698080000000     0.0739792  
C82      C      0.742100000000     0.036290000000     0.716420000000    -0.089178   
C83      C      0.963760000000     0.368900000000     0.549330000000    -0.0890599  
C84      C      0.930740000000     0.350140000000     0.547820000000     0.0342952  
C85      C      0.913640000000     0.362990000000     0.527560000000    -0.0895241  
C86      C      0.929300000000     0.393920000000     0.510950000000     0.0738747  
C87      C      0.978710000000     0.399520000000     0.531470000000     0.0735785  
C88      C      0.914200000000     0.317550000000     0.567480000000     0.0344976  
C89      C      0.928280000000     0.298590000000     0.567200000000    -0.0893076  
C90      C      0.912240000000     0.268060000000     0.585370000000     0.0740648  
C91      C      0.868380000000     0.274140000000     0.603660000000     0.0740451  
C92      C      0.884000000000     0.304970000000     0.586740000000    -0.0897654  
C93      C      0.075780000000     0.698060000000     0.366830000000    -0.0887408  
C94      C      0.092990000000     0.684410000000     0.384430000000     0.0344421  
C95      C      0.126100000000     0.702780000000     0.383680000000    -0.089533   
C96      C      0.140970000000     0.733120000000     0.365140000000     0.0746716  
C97      C      0.091490000000     0.729070000000     0.350280000000     0.0742594  
C98      C      0.076760000000     0.651410000000     0.403220000000     0.0343685  
C99      C      0.045740000000     0.637110000000     0.420250000000    -0.0887041  
C100     C      0.030900000000     0.606060000000     0.436550000000     0.074257   
C101     C      0.077120000000     0.603220000000     0.422700000000     0.0745115  
C102     C      0.092170000000     0.633640000000     0.404410000000    -0.0894679  
C103     C      0.629760000000     0.702950000000     0.882360000000    -0.0893756  
C104     C      0.596750000000     0.683990000000     0.881520000000     0.0344907  
C105     C      0.579260000000     0.696560000000     0.861720000000    -0.0897029  
C106     C      0.594560000000     0.727430000000     0.844910000000     0.0740642  
C107     C      0.644340000000     0.733500000000     0.864290000000     0.0741776  
C108     C      0.580600000000     0.651430000000     0.901220000000     0.034447   
C109     C      0.594890000000     0.632680000000     0.900270000000    -0.0892984  
C110     C      0.579210000000     0.602140000000     0.918370000000     0.0741062  
C111     C      0.535260000000     0.607760000000     0.937930000000     0.0740178  
C112     C      0.550550000000     0.638620000000     0.921080000000    -0.0896545  
C113     C      0.258680000000     0.965850000000     0.233580000000    -0.0895994  
C114     C      0.244300000000     0.984520000000     0.234620000000     0.0345412  
C115     C      0.214170000000     0.971560000000     0.254280000000    -0.0896104  
C116     C      0.199010000000     0.940680000000     0.271170000000     0.0738732  
C117     C      0.243150000000     0.935360000000     0.251740000000     0.0745032  
C118     C      0.260620000000     0.017220000000     0.215370000000     0.0344578  
C119     C      0.293640000000     0.035920000000     0.216420000000    -0.089402   
C120     C      0.308550000000     0.066420000000     0.198280000000     0.0743547  
C121     C      0.259070000000     0.061050000000     0.178840000000     0.0739273  
C122     C      0.243420000000     0.030170000000     0.195720000000    -0.0895674  
C123     C      0.378050000000     0.303830000000     0.083960000000    -0.0887783  
C124     C      0.408970000000     0.317610000000     0.066660000000     0.034439   
C125     C      0.423790000000     0.299290000000     0.067380000000    -0.0895908  
C126     C      0.408320000000     0.268870000000     0.085630000000     0.074624   
C127     C      0.362770000000     0.272760000000     0.100240000000     0.0742871  
C128     C      0.425730000000     0.350690000000     0.048150000000     0.0344254  
C129     C      0.409000000000     0.364940000000     0.030910000000    -0.0887643  
C130     C      0.425200000000     0.396030000000     0.014720000000     0.0742752  
C131     C      0.474240000000     0.398990000000     0.029230000000     0.0745587  
C132     C      0.458880000000     0.368530000000     0.047390000000    -0.0895384  
C133     C      0.698320000000     0.834980000000     0.511810000000    -0.0900423  
C134     C      0.671930000000     0.810590000000     0.533680000000     0.0345053  
C135     C      0.646890000000     0.788520000000     0.506870000000    -0.0905403  
C136     C      0.648050000000     0.791880000000     0.459430000000     0.0738551  
C137     C      0.698550000000     0.837860000000     0.464350000000     0.0740202  
C138     C      0.669600000000     0.809750000000     0.584210000000     0.0344923  
C139     C      0.695260000000     0.814970000000     0.611550000000    -0.0903065  
C140     C      0.693520000000     0.817150000000     0.658950000000     0.073719   
C141     C      0.641440000000     0.808530000000     0.652810000000     0.0741966  
C142     C      0.642230000000     0.805800000000     0.605470000000    -0.0901832  
C143     C      0.694180000000     0.862350000000     0.012400000000    -0.0901342  
C144     C      0.666860000000     0.858360000000     0.033870000000     0.0344583  
C145     C      0.641190000000     0.853330000000     0.006680000000    -0.0900438  
C146     C      0.642900000000     0.851410000000     0.959220000000     0.0734863  
C147     C      0.694950000000     0.859910000000     0.965020000000     0.0741498  
C148     C      0.664690000000     0.857410000000     0.084450000000     0.034478   
C149     C      0.690100000000     0.879050000000     0.111120000000    -0.0904574  
C150     C      0.689190000000     0.875500000000     0.158490000000     0.0738959  
C151     C      0.638130000000     0.830270000000     0.153920000000     0.0738967  
C152     C      0.638150000000     0.833310000000     0.106480000000    -0.08992    
C153     C      0.708890000000     0.742670000000     0.233550000000    -0.08954    
C154     C      0.741920000000     0.757000000000     0.234280000000     0.0345779  
C155     C      0.759230000000     0.787250000000     0.253540000000    -0.0896941  
C156     C      0.743680000000     0.802600000000     0.270310000000     0.0740643  
C157     C      0.694090000000     0.758390000000     0.251590000000     0.0743894  
C158     C      0.758160000000     0.740540000000     0.215110000000     0.0344432  
C159     C      0.743870000000     0.707500000000     0.216550000000    -0.0893759  
C160     C      0.759450000000     0.692510000000     0.198680000000     0.0743645  
C161     C      0.803430000000     0.741940000000     0.178640000000     0.0739895  
C162     C      0.788210000000     0.757650000000     0.195220000000    -0.0895926  
C163     C      0.625840000000     0.927220000000     0.365640000000    -0.0889005  
C164     C      0.594960000000     0.910280000000     0.383090000000     0.0344814  
C165     C      0.579970000000     0.877130000000     0.382770000000    -0.0897012  
C166     C      0.595280000000     0.861950000000     0.364770000000     0.0747258  
C167     C      0.640940000000     0.911210000000     0.349560000000     0.0743209  
C168     C      0.578420000000     0.926830000000     0.401340000000     0.0345078  
C169     C      0.595350000000     0.957730000000     0.418770000000    -0.0889515  
C170     C      0.579360000000     0.972840000000     0.434830000000     0.0743898  
C171     C      0.530120000000     0.927160000000     0.419650000000     0.0746951  
C172     C      0.545290000000     0.911830000000     0.401660000000    -0.0896855  
C173     C      0.977560000000     0.520190000000     0.673450000000    -0.0909827  
C174     C      0.003220000000     0.525350000000     0.700660000000     0.0349367  
C175     C      0.030580000000     0.529280000000     0.679350000000    -0.0904027  
C176     C      0.031330000000     0.526610000000     0.631990000000     0.074482   
C177     C      0.979260000000     0.518060000000     0.626090000000     0.0738798  
C178     C      0.000940000000     0.524620000000     0.751130000000     0.035073   
C179     C      0.025890000000     0.546970000000     0.777740000000    -0.0910338  
C180     C      0.024720000000     0.543910000000     0.825180000000     0.0745585  
C181     C      0.974390000000     0.497650000000     0.820640000000     0.0743582  
C182     C      0.974630000000     0.500230000000     0.773150000000    -0.0906758  
C183     C      0.034710000000     0.504740000000     0.178990000000    -0.0901476  
C184     C      0.008450000000     0.479960000000     0.200560000000     0.0349472  
C185     C      0.983620000000     0.457840000000     0.173610000000    -0.091283   
C186     C      0.984800000000     0.461460000000     0.126290000000     0.0740606  
C187     C      0.034950000000     0.507900000000     0.131560000000     0.0741918  
C188     C      0.005930000000     0.478620000000     0.250970000000     0.035015   
C189     C      0.031200000000     0.482830000000     0.278310000000    -0.0906951  
C190     C      0.029110000000     0.484110000000     0.325770000000     0.0740418  
C191     C      0.977510000000     0.476790000000     0.319540000000     0.0744125  
C192     C      0.978610000000     0.474880000000     0.272130000000    -0.0907837  
C193     C      0.913710000000     0.543850000000     0.049150000000    -0.0894836  
C194     C      0.928350000000     0.576980000000     0.050080000000     0.0344786  
C195     C      0.959180000000     0.594350000000     0.032580000000    -0.0890901  
C196     C      0.974660000000     0.578820000000     0.016240000000     0.0745701  
C197     C      0.929400000000     0.529130000000     0.030830000000     0.0744618  
C198     C      0.911600000000     0.593160000000     0.069030000000     0.0344831  
C199     C      0.878460000000     0.577880000000     0.069930000000    -0.0896134  
C200     C      0.863190000000     0.593050000000     0.088160000000     0.0745575  
C201     C      0.912320000000     0.639020000000     0.102710000000     0.0744541  
C202     C      0.928410000000     0.624080000000     0.086460000000    -0.0889684  
C203     C      0.306360000000     0.138970000000     0.937780000000    -0.0900322  
C204     C      0.333080000000     0.141440000000     0.916360000000     0.0344933  
C205     C      0.358210000000     0.145010000000     0.943500000000    -0.0905375  
C206     C      0.356720000000     0.147160000000     0.990900000000     0.0736832  
C207     C      0.305830000000     0.141670000000     0.985180000000     0.0738714  
C208     C      0.335520000000     0.142640000000     0.865890000000     0.0346234  
C209     C      0.310320000000     0.121200000000     0.838750000000    -0.0905995  
C210     C      0.311920000000     0.124780000000     0.791320000000     0.0738042  
C211     C      0.363010000000     0.169890000000     0.797070000000     0.0742849  
C212     C      0.362380000000     0.166710000000     0.844480000000    -0.0902308  
C213     C      0.363010000000     0.195810000000     0.343930000000    -0.0901548  
C214     C      0.336070000000     0.192540000000     0.365730000000     0.034554   
C215     C      0.310610000000     0.188430000000     0.338860000000    -0.0904842  
C216     C      0.312000000000     0.186460000000     0.291420000000     0.0739028  
C217     C      0.363480000000     0.193390000000     0.296470000000     0.0741524  
C218     C      0.333840000000     0.191260000000     0.416280000000     0.0345711  
C219     C      0.306870000000     0.167470000000     0.437910000000    -0.0901489  
C220     C      0.306370000000     0.164310000000     0.485330000000     0.0740852  
C221     C      0.357900000000     0.208760000000     0.490680000000     0.0739243  
C222     C      0.359320000000     0.212390000000     0.443280000000    -0.0905428  
C223     C      0.410920000000     0.040980000000     0.550390000000    -0.0895325  
C224     C      0.425250000000     0.074030000000     0.549580000000     0.0345154  
C225     C      0.455510000000     0.091320000000     0.530360000000    -0.0896287  
C226     C      0.470850000000     0.075750000000     0.513710000000     0.0740124  
C227     C      0.426650000000     0.026150000000     0.532470000000     0.0744513  
C228     C      0.408790000000     0.090310000000     0.568600000000     0.0344902  
C229     C      0.375770000000     0.076010000000     0.567080000000    -0.08943    
C230     C      0.360780000000     0.091630000000     0.584840000000     0.0743971  
C231     C      0.410160000000     0.135640000000     0.604920000000     0.0740323  
C232     C      0.425880000000     0.120390000000     0.588450000000    -0.0896241  
C233     C      0.095540000000     0.462170000000     0.902800000000    -0.0895063  
C234     C      0.080700000000     0.429040000000     0.901620000000     0.0345781  
C235     C      0.049930000000     0.411760000000     0.919330000000    -0.0892543  
C236     C      0.034610000000     0.427380000000     0.935880000000     0.0749204  
C237     C      0.079980000000     0.476990000000     0.921330000000     0.0744261  
C238     C      0.097090000000     0.412680000000     0.882080000000     0.0345029  
C239     C      0.079870000000     0.381900000000     0.864330000000    -0.0891892  
C240     C      0.095520000000     0.366610000000     0.847780000000     0.0747636  
C241     C      0.145070000000     0.412060000000     0.862360000000     0.0744418  
C242     C      0.130220000000     0.427580000000     0.880910000000    -0.0895065  
C243     C      0.246170000000     0.210700000000     0.713450000000    -0.0894762  
C244     C      0.261430000000     0.243860000000     0.714370000000     0.0344403  
C245     C      0.292330000000     0.260690000000     0.696930000000    -0.0889009  
C246     C      0.307270000000     0.244590000000     0.680650000000     0.0744171  
C247     C      0.261330000000     0.195420000000     0.695200000000     0.0744552  
C248     C      0.245260000000     0.260600000000     0.733340000000     0.0344326  
C249     C      0.212140000000     0.245930000000     0.734300000000    -0.089485   
C250     C      0.197420000000     0.261610000000     0.752670000000     0.0745256  
C251     C      0.247070000000     0.306920000000     0.767230000000     0.0745008  
C252     C      0.262600000000     0.291450000000     0.750840000000    -0.0889262  
C253     C      0.481520000000     0.455220000000     0.672560000000    -0.0904946  
C254     C      0.477530000000     0.476660000000     0.699400000000     0.0345185  
C255     C      0.474350000000     0.500410000000     0.677550000000    -0.0901135  
C256     C      0.476720000000     0.503260000000     0.630080000000     0.0740406  
C257     C      0.483440000000     0.458540000000     0.625110000000     0.0738409  
C258     C      0.478840000000     0.475740000000     0.749960000000     0.0344892  
C259     C      0.457830000000     0.480270000000     0.776980000000    -0.0904669  
C260     C      0.461490000000     0.482490000000     0.824370000000     0.0738149  
C261     C      0.505730000000     0.475050000000     0.819010000000     0.0740302  
C262     C      0.502530000000     0.472380000000     0.771600000000    -0.0900413  
C263     C      0.531180000000     0.500310000000     0.271480000000    -0.0901864  
C264     C      0.528870000000     0.524670000000     0.250030000000     0.0345705  
C265     C      0.525410000000     0.546310000000     0.277150000000    -0.0905869  
C266     C      0.523220000000     0.542650000000     0.324550000000     0.0738791  
C267     C      0.528440000000     0.497070000000     0.318880000000     0.0742073  
C268     C      0.527710000000     0.525950000000     0.199550000000     0.0345483  
C269     C      0.549020000000     0.521970000000     0.172420000000    -0.0905649  
C270     C      0.545460000000     0.520040000000     0.124990000000     0.0738127  
C271     C      0.500620000000     0.526470000000     0.130690000000     0.07431    
C272     C      0.503780000000     0.528980000000     0.178100000000    -0.090182   
C273     C      0.836580000000     0.196640000000     0.844710000000    -0.0900494  
C274     C      0.860300000000     0.193350000000     0.866370000000     0.0344383  
C275     C      0.881330000000     0.188840000000     0.839310000000    -0.0902724  
C276     C      0.877610000000     0.186510000000     0.791890000000     0.0735923  
C277     C      0.833330000000     0.193870000000     0.797320000000     0.0740167  
C278     C      0.861470000000     0.192280000000     0.916970000000     0.0343014  
C279     C      0.856980000000     0.213350000000     0.943990000000    -0.0900999  
C280     C      0.854760000000     0.209720000000     0.991440000000     0.0732967  
C281     C      0.862170000000     0.165450000000     0.986090000000     0.0737906  
C282     C      0.864840000000     0.168610000000     0.938680000000    -0.0899487  
C283     C      0.833790000000     0.137740000000     0.438840000000    -0.0901494  
C284     C      0.810170000000     0.141080000000     0.416980000000     0.0344782  
C285     C      0.789150000000     0.145740000000     0.443840000000    -0.0902331  
C286     C      0.792800000000     0.148170000000     0.491280000000     0.0736264  
C287     C      0.836960000000     0.140610000000     0.486230000000     0.0741559  
C288     C      0.809200000000     0.142170000000     0.366360000000     0.0343915  
C289     C      0.813820000000     0.121120000000     0.339460000000    -0.0902274  
C290     C      0.816350000000     0.124850000000     0.292050000000     0.0735685  
C291     C      0.808950000000     0.169150000000     0.297170000000     0.0739591  
C292     C      0.805990000000     0.165890000000     0.344540000000    -0.0899716  
C293     C      0.172930000000     0.366880000000     0.604630000000    -0.090112   
C294     C      0.148190000000     0.340590000000     0.583060000000     0.0346985  
C295     C      0.126090000000     0.315730000000     0.609990000000    -0.0910431  
C296     C      0.129700000000     0.316920000000     0.657320000000     0.0743625  
C297     C      0.176080000000     0.367120000000     0.652070000000     0.0740545  
C298     C      0.146870000000     0.338070000000     0.532630000000     0.034731   
C299     C      0.151090000000     0.363360000000     0.505290000000    -0.0907204  
C300     C      0.152390000000     0.361270000000     0.457830000000     0.0740716  
C301     C      0.145060000000     0.309640000000     0.464070000000     0.0745475  
C302     C      0.143120000000     0.310730000000     0.511480000000    -0.0904239  
C303     C      0.215220000000     0.358070000000     0.005860000000    -0.0906314  
C304     C      0.192900000000     0.333100000000     0.032480000000     0.0345531  
C305     C      0.168510000000     0.306770000000     0.010480000000    -0.0900014  
C306     C      0.165920000000     0.306540000000     0.962980000000     0.0741052  
C307     C      0.212140000000     0.356900000000     0.958420000000     0.0739357  
C308     C      0.193650000000     0.335390000000     0.082960000000     0.0347133  
C309     C      0.197610000000     0.362770000000     0.104280000000    -0.0903334  
C310     C      0.194970000000     0.363530000000     0.151640000000     0.0742855  
C311     C      0.186380000000     0.311410000000     0.157530000000     0.0741399  
C312     C      0.188480000000     0.309700000000     0.110160000000    -0.0906648  
C313     C      0.967010000000     0.260510000000     0.216140000000    -0.0890164  
C314     C      0.985940000000     0.246390000000     0.215930000000     0.0338985  
C315     C      0.973300000000     0.216140000000     0.196760000000    -0.089437   
C316     C      0.942470000000     0.200520000000     0.179840000000     0.0738389  
C317     C      0.936490000000     0.244470000000     0.197990000000     0.0737919  
C318     C      0.018530000000     0.262940000000     0.235580000000     0.0347843  
C319     C      0.037310000000     0.295970000000     0.234120000000    -0.089214   
C320     C      0.067910000000     0.310920000000     0.252010000000     0.0740126  
C321     C      0.062290000000     0.261470000000     0.272460000000     0.0739407  
C322     C      0.031380000000     0.245820000000     0.255830000000    -0.0895766  
C323     C      0.366330000000     0.407710000000     0.416840000000    -0.0886519  
C324     C      0.352700000000     0.424980000000     0.399320000000     0.0342725  
C325     C      0.371110000000     0.458110000000     0.400160000000    -0.0893264  
C326     C      0.401460000000     0.472940000000     0.418680000000     0.0743357  
C327     C      0.397330000000     0.423380000000     0.433380000000     0.0741323  
C328     C      0.319700000000     0.408790000000     0.380520000000     0.0343592  
C329     C      0.305340000000     0.377730000000     0.363550000000    -0.0887336  
C330     C      0.274290000000     0.362930000000     0.347240000000     0.0742043  
C331     C      0.271590000000     0.409250000000     0.360970000000     0.0743364  
C332     C      0.302000000000     0.424270000000     0.379250000000    -0.0893933  
C333     C      0.501540000000     0.970130000000     0.677810000000    -0.0899697  
C334     C      0.525620000000     0.996690000000     0.699840000000     0.0344907  
C335     C      0.547240000000     0.022120000000     0.673170000000    -0.0905085  
C336     C      0.543680000000     0.021210000000     0.625800000000     0.0738914  
C337     C      0.498490000000     0.970110000000     0.630380000000     0.0739024  
C338     C      0.526590000000     0.998840000000     0.750410000000     0.0344721  
C339     C      0.521580000000     0.973160000000     0.777590000000    -0.0901629  
C340     C      0.519660000000     0.974850000000     0.825050000000     0.0735775  
C341     C      0.528110000000     0.026920000000     0.819280000000     0.0742942  
C342     C      0.530550000000     0.026160000000     0.771910000000    -0.0902077  
C343     C      0.483120000000     0.027120000000     0.172710000000    -0.0903165  
C344     C      0.477930000000     0.001470000000     0.200060000000     0.0345043  
C345     C      0.474010000000     0.974090000000     0.178800000000    -0.0901941  
C346     C      0.476720000000     0.973290000000     0.131460000000     0.0742226  
C347     C      0.485270000000     0.025370000000     0.125320000000     0.0737721  
C348     C      0.478800000000     0.003800000000     0.250590000000     0.0344938  
C349     C      0.503180000000     0.030220000000     0.272440000000    -0.0900672  
C350     C      0.506070000000     0.030460000000     0.319890000000     0.0740761  
C351     C      0.460110000000     0.979930000000     0.324850000000     0.0737795  
C352     C      0.456750000000     0.978750000000     0.277410000000    -0.090511   
C353     C      0.634270000000     0.038980000000     0.048720000000    -0.0890425  
C354     C      0.653150000000     0.072030000000     0.047690000000     0.0343948  
C355     C      0.640480000000     0.089360000000     0.027640000000    -0.0896756  
C356     C      0.609610000000     0.073930000000     0.010920000000     0.0741758  
C357     C      0.603690000000     0.024250000000     0.030700000000     0.0739226  
C358     C      0.685670000000     0.088410000000     0.067590000000     0.034415   
C359     C      0.698270000000     0.118570000000     0.087040000000    -0.089611   
C360     C      0.729090000000     0.134160000000     0.103960000000     0.0739881  
C361     C      0.735100000000     0.090270000000     0.085440000000     0.0738921  
C362     C      0.704580000000     0.074270000000     0.067260000000    -0.0891137  
C363     C      0.214550000000     0.856980000000     0.506660000000    -0.090637   
C364     C      0.192970000000     0.860490000000     0.533800000000     0.0346326  
C365     C      0.168640000000     0.862860000000     0.512390000000    -0.0902567  
C366     C      0.165390000000     0.860130000000     0.464990000000     0.074212   
C367     C      0.210880000000     0.854800000000     0.459260000000     0.0738724  
C368     C      0.194270000000     0.859350000000     0.584290000000     0.0345283  
C369     C      0.197280000000     0.835390000000     0.605750000000    -0.0901221  
C370     C      0.194790000000     0.832250000000     0.653170000000     0.0741882  
C371     C      0.188450000000     0.877170000000     0.658840000000     0.0738339  
C372     C      0.190360000000     0.880700000000     0.611410000000    -0.0905312  
C373     C      0.148370000000     0.789460000000     0.006850000000    -0.0902124  
C374     C      0.143880000000     0.810520000000     0.033840000000     0.0344136  
C375     C      0.140560000000     0.834240000000     0.012170000000    -0.0899002  
C376     C      0.143230000000     0.837410000000     0.964750000000     0.0739688  
C377     C      0.150590000000     0.793100000000     0.959440000000     0.0735826  
C378     C      0.144820000000     0.809240000000     0.084400000000     0.0345335  
C379     C      0.123450000000     0.813320000000     0.111250000000    -0.0904391  
C380     C      0.126790000000     0.815260000000     0.158700000000     0.0738795  
C381     C      0.171400000000     0.808400000000     0.153710000000     0.0739619  
C382     C      0.168530000000     0.806010000000     0.106250000000    -0.0900596  
C383     C      0.306780000000     0.882120000000     0.863150000000    -0.0896702  
C384     C      0.319610000000     0.912220000000     0.882940000000     0.0344073  
C385     C      0.300880000000     0.926540000000     0.883800000000    -0.0892355  
C386     C      0.270350000000     0.910840000000     0.865680000000     0.0740766  
C387     C      0.275930000000     0.866840000000     0.846270000000     0.0739609  
C388     C      0.352180000000     0.928410000000     0.902630000000     0.0343817  
C389     C      0.364810000000     0.910950000000     0.922370000000    -0.0896157  
C390     C      0.395660000000     0.926280000000     0.939180000000     0.073983   
C391     C      0.401660000000     0.976070000000     0.919900000000     0.0739622  
C392     C      0.371120000000     0.961450000000     0.901830000000    -0.0891992  
C393     C      0.813130000000     0.689900000000     0.839780000000    -0.0906622  
C394     C      0.809550000000     0.664770000000     0.866950000000     0.0346284  
C395     C      0.807180000000     0.638060000000     0.845580000000    -0.0902119  
C396     C      0.809990000000     0.637550000000     0.798190000000     0.0742208  
C397     C      0.815380000000     0.688420000000     0.792390000000     0.0739272  
C398     C      0.810650000000     0.667220000000     0.917420000000     0.0344944  
C399     C      0.834630000000     0.694130000000     0.938880000000    -0.0901872  
C400     C      0.837720000000     0.694770000000     0.986310000000     0.0740908  
C401     C      0.792700000000     0.643620000000     0.991980000000     0.0736119  
C402     C      0.789210000000     0.641990000000     0.944540000000    -0.090497   
C403     C      0.880350000000     0.690980000000     0.340000000000    -0.0904839  
C404     C      0.859250000000     0.665500000000     0.367040000000     0.034496   
C405     C      0.835390000000     0.638550000000     0.345440000000    -0.0900589  
C406     C      0.832150000000     0.638070000000     0.298030000000     0.0740154  
C407     C      0.876640000000     0.689590000000     0.292620000000     0.0738767  
C408     C      0.860620000000     0.667720000000     0.417590000000     0.0345441  
C409     C      0.864000000000     0.694720000000     0.439440000000    -0.090145   
C410     C      0.861680000000     0.695210000000     0.486900000000     0.0741491  
C411     C      0.854640000000     0.643650000000     0.491880000000     0.0738719  
C412     C      0.856500000000     0.642230000000     0.444420000000    -0.090533   
C413     C      0.704280000000     0.625320000000     0.567090000000    -0.0893743  
C414     C      0.685570000000     0.592280000000     0.568180000000     0.0343797  
C415     C      0.698550000000     0.575080000000     0.587760000000    -0.0893541  
C416     C      0.729450000000     0.590740000000     0.604550000000     0.0736534  
C417     C      0.734800000000     0.640240000000     0.585130000000     0.0743266  
C418     C      0.652830000000     0.575950000000     0.549050000000     0.034454   
C419     C      0.634210000000     0.590370000000     0.550080000000    -0.0894095  
C420     C      0.603700000000     0.574850000000     0.532020000000     0.0742383  
C421     C      0.608880000000     0.530590000000     0.512720000000     0.0737374  
C422     C      0.639770000000     0.545750000000     0.529530000000    -0.0894553  
C423     C      0.972150000000     0.709750000000     0.699530000000    -0.0885169  
C424     C      0.985970000000     0.740710000000     0.716760000000     0.0338846  
C425     C      0.967690000000     0.755570000000     0.715940000000    -0.089305   
C426     C      0.937270000000     0.740100000000     0.697690000000     0.0743246  
C427     C      0.941080000000     0.694470000000     0.683240000000     0.0740015  
C428     C      0.019040000000     0.757460000000     0.735320000000     0.0347685  
C429     C      0.033280000000     0.740700000000     0.752520000000    -0.0887945  
C430     C      0.064350000000     0.756880000000     0.768760000000     0.0741886  
C431     C      0.067340000000     0.805970000000     0.754380000000     0.0744543  
C432     C      0.036900000000     0.790630000000     0.736180000000    -0.0894842  
H1       H      0.782680000000     0.986160000000     0.759510000000     0.0487425  
H2       H      0.756360000000     0.932740000000     0.788110000000     0.0215393  
H3       H      0.666650000000     0.921590000000     0.751340000000     0.0223474  
H4       H      0.692290000000     0.974290000000     0.719600000000     0.0497083  
H5       H      0.797960000000     0.016040000000     0.694140000000     0.0487142  
H6       H      0.825240000000     0.069370000000     0.665210000000     0.0215142  
H7       H      0.746380000000     0.080650000000     0.699570000000     0.0223341  
H8       H      0.719110000000     0.028040000000     0.731610000000     0.049603   
H9       H      0.888210000000     0.349300000000     0.524210000000     0.0486279  
H10      H      0.915020000000     0.402890000000     0.496060000000     0.0215753  
H11      H      0.004230000000     0.413230000000     0.533940000000     0.0228741  
H12      H      0.978140000000     0.360430000000     0.565150000000     0.0495124  
H13      H      0.951320000000     0.306860000000     0.552180000000     0.0495606  
H14      H      0.923930000000     0.254190000000     0.583920000000     0.0222362  
H15      H      0.844970000000     0.265390000000     0.617800000000     0.0215838  
H16      H      0.872360000000     0.318810000000     0.589130000000     0.0487195  
H17      H      0.140880000000     0.694290000000     0.397990000000     0.0482756  
H18      H      0.166580000000     0.746250000000     0.365510000000     0.0212624  
H19      H      0.077250000000     0.738700000000     0.337380000000     0.0217869  
H20      H      0.050280000000     0.685010000000     0.365190000000     0.0493099  
H21      H      0.032790000000     0.649690000000     0.421560000000     0.0492825  
H22      H      0.006870000000     0.595910000000     0.448940000000     0.0218624  
H23      H      0.090060000000     0.590550000000     0.422620000000     0.0212888  
H24      H      0.115620000000     0.642640000000     0.390590000000     0.0483085  
H25      H      0.553810000000     0.682710000000     0.858890000000     0.0486813  
H26      H      0.579990000000     0.736190000000     0.830390000000     0.0215915  
H27      H      0.669870000000     0.747390000000     0.866240000000     0.0223145  
H28      H      0.644420000000     0.694680000000     0.897790000000     0.0496724  
H29      H      0.617820000000     0.641120000000     0.884770000000     0.0496465  
H30      H      0.591070000000     0.588440000000     0.916370000000     0.0225003  
H31      H      0.511950000000     0.598810000000     0.952530000000     0.0215365  
H32      H      0.538770000000     0.652310000000     0.923970000000     0.0486769  
H33      H      0.202280000000     0.985140000000     0.257070000000     0.0486778  
H34      H      0.175670000000     0.931600000000     0.285730000000     0.0215536  
H35      H      0.255160000000     0.921800000000     0.249770000000     0.0224406  
H36      H      0.281600000000     0.974330000000     0.218050000000     0.0497157  
H37      H      0.308120000000     0.027450000000     0.231940000000     0.0496375  
H38      H      0.334100000000     0.080000000000     0.200260000000     0.0225195  
H39      H      0.244770000000     0.070130000000     0.164300000000     0.0215504  
H40      H      0.217960000000     0.016570000000     0.192920000000     0.0486484  
H41      H      0.447110000000     0.307890000000     0.053280000000     0.0483398  
H42      H      0.420840000000     0.255770000000     0.085260000000     0.0213066  
H43      H      0.338850000000     0.263030000000     0.112930000000     0.0217782  
H44      H      0.365540000000     0.316840000000     0.085580000000     0.0492747  
H45      H      0.383490000000     0.352300000000     0.029300000000     0.049248   
H46      H      0.411310000000     0.406130000000     0.002100000000     0.0217889  
H47      H      0.499840000000     0.411720000000     0.029590000000     0.0212749  
H48      H      0.473310000000     0.359550000000     0.061420000000     0.0483285  
H49      H      0.626230000000     0.769090000000     0.522530000000     0.0492433  
H50      H      0.627830000000     0.774650000000     0.440070000000     0.0216979  
H51      H      0.719050000000     0.857660000000     0.448940000000     0.0221327  
H52      H      0.718130000000     0.852610000000     0.531340000000     0.0500865  
H53      H      0.716730000000     0.817810000000     0.596370000000     0.0492314  
H54      H      0.714130000000     0.821800000000     0.678790000000     0.0217742  
H55      H      0.620050000000     0.806140000000     0.667680000000     0.0220964  
H56      H      0.621930000000     0.801910000000     0.585520000000     0.0500248  
H57      H      0.619760000000     0.850490000000     0.022010000000     0.0491761  
H58      H      0.622300000000     0.846900000000     0.939470000000     0.0217812  
H59      H      0.716330000000     0.862350000000     0.950020000000     0.0221187  
H60      H      0.714480000000     0.866070000000     0.032170000000     0.0500399  
H61      H      0.710880000000     0.898300000000     0.095400000000     0.0492423  
H62      H      0.709690000000     0.892400000000     0.177680000000     0.0219309  
H63      H      0.617490000000     0.810690000000     0.169450000000     0.0221063  
H64      H      0.618050000000     0.815990000000     0.087070000000     0.0499315  
H65      H      0.784700000000     0.799110000000     0.256130000000     0.0486633  
H66      H      0.758070000000     0.826040000000     0.284560000000     0.021492   
H67      H      0.668530000000     0.746430000000     0.249880000000     0.0224462  
H68      H      0.694340000000     0.719640000000     0.218350000000     0.0496998  
H69      H      0.720980000000     0.693090000000     0.232230000000     0.0496401  
H70      H      0.747550000000     0.666960000000     0.200990000000     0.0224713  
H71      H      0.826730000000     0.756190000000     0.163930000000     0.0215344  
H72      H      0.800020000000     0.783110000000     0.192040000000     0.0486036  
H73      H      0.556650000000     0.862600000000     0.396990000000     0.0483867  
H74      H      0.582650000000     0.836330000000     0.365430000000     0.0212678  
H75      H      0.664830000000     0.925250000000     0.336700000000     0.0218663  
H76      H      0.638440000000     0.952730000000     0.363740000000     0.0493765  
H77      H      0.620850000000     0.970330000000     0.420670000000     0.0493779  
H78      H      0.593400000000     0.996750000000     0.447680000000     0.021844   
H79      H      0.504520000000     0.914530000000     0.419000000000     0.0212697  
H80      H      0.530770000000     0.888490000000     0.387460000000     0.0483876  
H81      H      0.050880000000     0.533150000000     0.699260000000     0.0502149  
H82      H      0.052680000000     0.528970000000     0.617010000000     0.0220483  
H83      H      0.958630000000     0.513480000000     0.606350000000     0.0218537  
H84      H      0.956120000000     0.517390000000     0.688710000000     0.0493722  
H85      H      0.046460000000     0.566420000000     0.761930000000     0.0494464  
H86      H      0.044870000000     0.561380000000     0.844400000000     0.0216941  
H87      H      0.953980000000     0.477850000000     0.836230000000     0.0220045  
H88      H      0.954890000000     0.482410000000     0.753710000000     0.0502418  
H89      H      0.963090000000     0.438130000000     0.189090000000     0.0494696  
H90      H      0.964720000000     0.444100000000     0.106840000000     0.0219061  
H91      H      0.055270000000     0.527970000000     0.116270000000     0.0220598  
H92      H      0.054350000000     0.522390000000     0.198770000000     0.0502552  
H93      H      0.052600000000     0.485490000000     0.263100000000     0.0494008  
H94      H      0.049430000000     0.487970000000     0.345700000000     0.0216662  
H95      H      0.956210000000     0.474610000000     0.334420000000     0.0220078  
H96      H      0.958600000000     0.471710000000     0.252080000000     0.0503198  
H97      H      0.971500000000     0.619860000000     0.030920000000     0.0493258  
H98      H      0.998540000000     0.593220000000     0.003500000000     0.0217216  
H99      H      0.917110000000     0.503510000000     0.031110000000     0.0211741  
H100     H      0.890400000000     0.528980000000     0.063220000000     0.048276   
H101     H      0.864000000000     0.554480000000     0.055910000000     0.0483613  
H102     H      0.837580000000     0.580250000000     0.087840000000     0.0212747  
H103     H      0.926280000000     0.662980000000     0.115390000000     0.0217366  
H104     H      0.953920000000     0.636880000000     0.088110000000     0.0492608  
H105     H      0.379140000000     0.146670000000     0.928140000000     0.0493303  
H106     H      0.376970000000     0.150560000000     0.010560000000     0.0218603  
H107     H      0.285050000000     0.140560000000     0.000270000000     0.0222566  
H108     H      0.286480000000     0.136320000000     0.917920000000     0.0501485  
H109     H      0.289280000000     0.102070000000     0.854110000000     0.0493428  
H110     H      0.291630000000     0.108030000000     0.771630000000     0.0217104  
H111     H      0.383910000000     0.189420000000     0.782000000000     0.0220638  
H112     H      0.382310000000     0.183850000000     0.864350000000     0.0501925  
H113     H      0.289510000000     0.186230000000     0.354450000000     0.0492946  
H114     H      0.291490000000     0.182610000000     0.272000000000     0.0219031  
H115     H      0.384470000000     0.195130000000     0.281120000000     0.0220913  
H116     H      0.383160000000     0.198870000000     0.363490000000     0.0500399  
H117     H      0.286710000000     0.150540000000     0.418230000000     0.0500707  
H118     H      0.285350000000     0.145010000000     0.500550000000     0.0221082  
H119     H      0.378420000000     0.225290000000     0.510210000000     0.0218908  
H120     H      0.380440000000     0.231360000000     0.427840000000     0.0492951  
H121     H      0.467370000000     0.116810000000     0.527710000000     0.0486323  
H122     H      0.494290000000     0.090120000000     0.499490000000     0.0215105  
H123     H      0.414680000000     0.000580000000     0.534230000000     0.022416   
H124     H      0.387890000000     0.026440000000     0.565560000000     0.0496953  
H125     H      0.361380000000     0.053100000000     0.551430000000     0.0496652  
H126     H      0.335250000000     0.079720000000     0.582480000000     0.0224409  
H127     H      0.424400000000     0.158970000000     0.619600000000     0.021535   
H128     H      0.451320000000     0.132210000000     0.591680000000     0.0486261  
H129     H      0.037510000000     0.386240000000     0.920940000000     0.0494474  
H130     H      0.010750000000     0.413020000000     0.948700000000     0.0218013  
H131     H      0.092370000000     0.502610000000     0.921170000000     0.0211347  
H132     H      0.118860000000     0.476950000000     0.888720000000     0.0483025  
H133     H      0.054370000000     0.369440000000     0.862710000000     0.049448   
H134     H      0.081210000000     0.342740000000     0.834930000000     0.0218366  
H135     H      0.170670000000     0.424490000000     0.862530000000     0.0211174  
H136     H      0.144960000000     0.450910000000     0.895000000000     0.0483096  
H137     H      0.305120000000     0.286210000000     0.695280000000     0.0493012  
H138     H      0.331210000000     0.258570000000     0.667970000000     0.0217695  
H139     H      0.248550000000     0.169800000000     0.695510000000     0.021311   
H140     H      0.222780000000     0.196220000000     0.727480000000     0.048309   
H141     H      0.197290000000     0.222610000000     0.720230000000     0.0483038  
H142     H      0.171810000000     0.249290000000     0.752410000000     0.0211705  
H143     H      0.261450000000     0.330810000000     0.779970000000     0.0218102  
H144     H      0.288110000000     0.303790000000     0.752470000000     0.0492892  
H145     H      0.471380000000     0.517560000000     0.697090000000     0.0500209  
H146     H      0.475050000000     0.522550000000     0.614700000000     0.0220781  
H147     H      0.487200000000     0.441810000000     0.605710000000     0.021879   
H148     H      0.483640000000     0.436270000000     0.688180000000     0.0492886  
H149     H      0.438940000000     0.482570000000     0.761540000000     0.0492293  
H150     H      0.445060000000     0.486620000000     0.843900000000     0.0218717  
H151     H      0.524950000000     0.473180000000     0.834230000000     0.0220968  
H152     H      0.519370000000     0.469000000000     0.751910000000     0.0500009  
H153     H      0.523890000000     0.565680000000     0.261770000000     0.0492992  
H154     H      0.519920000000     0.559580000000     0.344200000000     0.0216994  
H155     H      0.529420000000     0.477320000000     0.333980000000     0.0220745  
H156     H      0.533730000000     0.483010000000     0.251640000000     0.0501936  
H157     H      0.568040000000     0.519870000000     0.187810000000     0.0493157  
H158     H      0.562110000000     0.516330000000     0.105320000000     0.0217085  
H159     H      0.481200000000     0.528050000000     0.115600000000     0.0220731  
H160     H      0.486740000000     0.531950000000     0.197950000000     0.0501677  
H161     H      0.900250000000     0.186590000000     0.854730000000     0.0491009  
H162     H      0.894010000000     0.182360000000     0.772330000000     0.0217082  
H163     H      0.814070000000     0.195680000000     0.782150000000     0.0221086  
H164     H      0.819710000000     0.199980000000     0.864380000000     0.049908   
H165     H      0.854680000000     0.232240000000     0.928530000000     0.0490667  
H166     H      0.850620000000     0.226140000000     0.010970000000     0.0218618  
H167     H      0.864040000000     0.146210000000     0.001290000000     0.0222326  
H168     H      0.868160000000     0.151710000000     0.919040000000     0.04986    
H169     H      0.770310000000     0.148050000000     0.428250000000     0.0491372  
H170     H      0.776430000000     0.152460000000     0.510690000000     0.0217233  
H171     H      0.856160000000     0.138740000000     0.501540000000     0.0221047  
H172     H      0.850660000000     0.134300000000     0.419350000000     0.0499231  
H173     H      0.816010000000     0.102200000000     0.355020000000     0.0491442  
H174     H      0.820590000000     0.108460000000     0.272610000000     0.0217287  
H175     H      0.807200000000     0.188420000000     0.281890000000     0.0221616  
H176     H      0.802590000000     0.182790000000     0.364060000000     0.0498827  
H177     H      0.106410000000     0.295190000000     0.594510000000     0.0495373  
H178     H      0.112360000000     0.296820000000     0.676760000000     0.0219055  
H179     H      0.196120000000     0.387470000000     0.667360000000     0.0220519  
H180     H      0.190560000000     0.386540000000     0.584860000000     0.0502205  
H181     H      0.153750000000     0.384770000000     0.520490000000     0.0494025  
H182     H      0.156260000000     0.381610000000     0.437900000000     0.0216399  
H183     H      0.142880000000     0.288320000000     0.449190000000     0.022058   
H184     H      0.139950000000     0.290710000000     0.531530000000     0.0503113  
H185     H      0.150710000000     0.287020000000     0.029920000000     0.0502029  
H186     H      0.146130000000     0.286110000000     0.947400000000     0.0221351  
H187     H      0.229590000000     0.377060000000     0.939190000000     0.0218134  
H188     H      0.234660000000     0.378650000000     0.021660000000     0.0493571  
H189     H      0.201490000000     0.383090000000     0.084380000000     0.0501911  
H190     H      0.197360000000     0.384900000000     0.166640000000     0.0220901  
H191     H      0.181800000000     0.290760000000     0.177260000000     0.021865   
H192     H      0.185660000000     0.288240000000     0.094900000000     0.0493881  
H193     H      0.987100000000     0.204450000000     0.194420000000     0.0485047  
H194     H      0.933700000000     0.177070000000     0.165780000000     0.0215924  
H195     H      0.922650000000     0.256200000000     0.199380000000     0.0223289  
H196     H      0.975310000000     0.283590000000     0.231080000000     0.0494301  
H197     H      0.028850000000     0.310380000000     0.218340000000     0.0497268  
H198     H      0.081620000000     0.336460000000     0.249580000000     0.0225507  
H199     H      0.071250000000     0.247170000000     0.287330000000     0.0216157  
H200     H      0.017700000000     0.220370000000     0.259150000000     0.0487507  
H201     H      0.362670000000     0.472950000000     0.385930000000     0.0482241  
H202     H      0.414620000000     0.498550000000     0.418370000000     0.0213252  
H203     H      0.406930000000     0.409090000000     0.446200000000     0.0217718  
H204     H      0.353260000000     0.382200000000     0.418420000000     0.0492454  
H205     H      0.317840000000     0.364710000000     0.362280000000     0.0492535  
H206     H      0.264100000000     0.338860000000     0.334910000000     0.0218028  
H207     H      0.258970000000     0.422260000000     0.360980000000     0.0213213  
H208     H      0.311050000000     0.447760000000     0.393010000000     0.048263   
H209     H      0.566480000000     0.042900000000     0.688890000000     0.0492656  
H210     H      0.560560000000     0.041720000000     0.606600000000     0.0219279  
H211     H      0.478920000000     0.949460000000     0.614850000000     0.0221114  
H212     H      0.484240000000     0.950020000000     0.697220000000     0.0499482  
H213     H      0.518760000000     0.951730000000     0.762240000000     0.0491775  
H214     H      0.515160000000     0.954240000000     0.844790000000     0.0217682  
H215     H      0.530530000000     0.048300000000     0.834290000000     0.0221061  
H216     H      0.534250000000     0.046480000000     0.752140000000     0.0500017  
H217     H      0.470150000000     0.953790000000     0.198750000000     0.0500436  
H218     H      0.474350000000     0.951890000000     0.116590000000     0.0220956  
H219     H      0.489890000000     0.045980000000     0.105480000000     0.0217725  
H220     H      0.485940000000     0.048600000000     0.187900000000     0.0492273  
H221     H      0.520800000000     0.050030000000     0.252890000000     0.0501061  
H222     H      0.525860000000     0.050980000000     0.335290000000     0.0221337  
H223     H      0.442900000000     0.959710000000     0.344230000000     0.02173    
H224     H      0.437320000000     0.958080000000     0.261770000000     0.0492487  
H225     H      0.654260000000     0.114810000000     0.024570000000     0.0487063  
H226     H      0.600800000000     0.088410000000     0.996240000000     0.0214789  
H227     H      0.589860000000     0.998700000000     0.032820000000     0.0224404  
H228     H      0.642610000000     0.024410000000     0.064290000000     0.0496197  
H229     H      0.684470000000     0.130250000000     0.089540000000     0.0486872  
H230     H      0.737840000000     0.157560000000     0.118190000000     0.0215973  
H231     H      0.748940000000     0.078560000000     0.083920000000     0.0223357  
H232     H      0.696290000000     0.051240000000     0.052150000000     0.0496115  
H233     H      0.151390000000     0.865450000000     0.532250000000     0.0502573  
H234     H      0.145670000000     0.861160000000     0.449910000000     0.0221132  
H235     H      0.227760000000     0.851450000000     0.439590000000     0.0217037  
H236     H      0.233880000000     0.855400000000     0.522010000000     0.0493181  
H237     H      0.200200000000     0.818310000000     0.585910000000     0.0501525  
H238     H      0.196340000000     0.812800000000     0.668270000000     0.0220929  
H239     H      0.184780000000     0.893850000000     0.678510000000     0.0217061  
H240     H      0.188280000000     0.899750000000     0.596020000000     0.0492896  
H241     H      0.137220000000     0.851120000000     0.031830000000     0.0500256  
H242     H      0.141400000000     0.856660000000     0.949520000000     0.0221196  
H243     H      0.154680000000     0.776630000000     0.939940000000     0.0219032  
H244     H      0.150630000000     0.770540000000     0.022300000000     0.0492093  
H245     H      0.104530000000     0.815490000000     0.095640000000     0.0493092  
H246     H      0.110110000000     0.819080000000     0.178100000000     0.0219198  
H247     H      0.190650000000     0.806680000000     0.169090000000     0.0221272  
H248     H      0.185630000000     0.802970000000     0.086710000000     0.0500221  
H249     H      0.309320000000     0.949500000000     0.899250000000     0.0496144  
H250     H      0.256690000000     0.922740000000     0.867610000000     0.0224962  
H251     H      0.266980000000     0.843490000000     0.831720000000     0.0215483  
H252     H      0.320430000000     0.870310000000     0.860330000000     0.0487115  
H253     H      0.351000000000     0.885480000000     0.925160000000     0.0486319  
H254     H      0.404450000000     0.911720000000     0.953660000000     0.021581   
H255     H      0.415510000000     0.001620000000     0.917990000000     0.0223538  
H256     H      0.362830000000     0.976110000000     0.886440000000     0.0496232  
H257     H      0.804540000000     0.618190000000     0.865480000000     0.0501984  
H258     H      0.808950000000     0.616780000000     0.783150000000     0.022069   
H259     H      0.818770000000     0.708680000000     0.772700000000     0.0217466  
H260     H      0.814710000000     0.710820000000     0.855100000000     0.0493585  
H261     H      0.851760000000     0.714080000000     0.919050000000     0.0501715  
H262     H      0.857180000000     0.715720000000     0.001410000000     0.0221586  
H263     H      0.775950000000     0.623300000000     0.011650000000     0.0218123  
H264     H      0.770150000000     0.620910000000     0.929140000000     0.0492932  
H265     H      0.818470000000     0.618390000000     0.365150000000     0.0500338  
H266     H      0.812810000000     0.617070000000     0.282850000000     0.022108   
H267     H      0.893150000000     0.710110000000     0.273080000000     0.0218709  
H268     H      0.899370000000     0.712090000000     0.355410000000     0.0492277  
H269     H      0.867080000000     0.714900000000     0.419900000000     0.0500095  
H270     H      0.863510000000     0.716240000000     0.502290000000     0.0220795  
H271     H      0.850780000000     0.623120000000     0.511280000000     0.0218609  
H272     H      0.854220000000     0.621100000000     0.428800000000     0.0493035  
H273     H      0.684960000000     0.549600000000     0.590590000000     0.0485477  
H274     H      0.738530000000     0.576440000000     0.619050000000     0.021579   
H275     H      0.748370000000     0.665810000000     0.583130000000     0.0225183  
H276     H      0.695810000000     0.639810000000     0.551610000000     0.0496361  
H277     H      0.642750000000     0.613350000000     0.565510000000     0.0496344  
H278     H      0.590190000000     0.586920000000     0.533950000000     0.0225078  
H279     H      0.599740000000     0.507200000000     0.498260000000     0.0215413  
H280     H      0.653290000000     0.533790000000     0.526750000000     0.0485844  
H281     H      0.976310000000     0.778930000000     0.729960000000     0.048125   
H282     H      0.924220000000     0.752670000000     0.697990000000     0.0213175  
H283     H      0.931340000000     0.670530000000     0.670620000000     0.0217909  
H284     H      0.985110000000     0.697190000000     0.697980000000     0.049075   
H285     H      0.020650000000     0.715180000000     0.754060000000     0.0493548  
H286     H      0.074420000000     0.742960000000     0.781340000000     0.0217776  
H287     H      0.080070000000     0.831600000000     0.754100000000     0.0213124  
H288     H      0.027940000000     0.805100000000     0.722190000000     0.0483781  
N1       N      0.709580000000     0.923070000000     0.771500000000    -0.207466   
N2       N      0.787990000000     0.079090000000     0.680540000000    -0.20742    
N3       N      0.961580000000     0.412150000000     0.513180000000    -0.207119   
N4       N      0.882290000000     0.255720000000     0.602760000000    -0.207479   
N5       N      0.123840000000     0.746360000000     0.349160000000    -0.207718   
N6       N      0.046550000000     0.589320000000     0.437970000000    -0.207577   
N7       N      0.626850000000     0.745870000000     0.846470000000    -0.207498   
N8       N      0.549380000000     0.589560000000     0.936340000000    -0.207387   
N9       N      0.213360000000     0.922680000000     0.269820000000    -0.20745    
N10      N      0.291390000000     0.079080000000     0.180220000000    -0.207411   
N11      N      0.377890000000     0.255510000000     0.101350000000    -0.20772    
N12      N      0.457570000000     0.412830000000     0.013640000000    -0.207671   
N13      N      0.673230000000     0.816960000000     0.438430000000    -0.207341   
N14      N      0.667140000000     0.814870000000     0.679300000000    -0.207301   
N15      N      0.669250000000     0.853760000000     0.938660000000    -0.207301   
N16      N      0.663820000000     0.850690000000     0.179620000000    -0.207269   
N17      N      0.711360000000     0.788320000000     0.269250000000    -0.207573   
N18      N      0.789220000000     0.709610000000     0.180510000000    -0.207517   
N19      N      0.625670000000     0.878820000000     0.348850000000    -0.207872   
N20      N      0.546990000000     0.957570000000     0.435540000000    -0.207845   
N21      N      0.005610000000     0.520340000000     0.605630000000    -0.207588   
N22      N      0.999630000000     0.518850000000     0.846380000000    -0.208049   
N23      N      0.009800000000     0.486880000000     0.105520000000    -0.20752    
N24      N      0.002830000000     0.482080000000     0.346120000000    -0.207477   
N25      N      0.959840000000     0.546460000000     0.015230000000    -0.20777    
N26      N      0.879950000000     0.623570000000     0.103710000000    -0.207883   
N27      N      0.331150000000     0.146520000000     0.011470000000    -0.207182   
N28      N      0.337670000000     0.149540000000     0.770750000000    -0.207389   
N29      N      0.337850000000     0.187930000000     0.270480000000    -0.207415   
N30      N      0.332000000000     0.184320000000     0.511450000000    -0.207398   
N31      N      0.456570000000     0.043400000000     0.514850000000    -0.207658   
N32      N      0.377860000000     0.121420000000     0.602980000000    -0.207532   
N33      N      0.049530000000     0.459730000000     0.936920000000    -0.207981   
N34      N      0.127870000000     0.381590000000     0.846750000000    -0.207976   
N35      N      0.291830000000     0.212210000000     0.679650000000    -0.207692   
N36      N      0.214720000000     0.292060000000     0.768290000000    -0.207843   
N37      N      0.482060000000     0.482980000000     0.604120000000    -0.207356   
N38      N      0.485840000000     0.480840000000     0.845140000000    -0.207359   
N39      N      0.523700000000     0.517620000000     0.345140000000    -0.207382   
N40      N      0.520840000000     0.521280000000     0.104390000000    -0.207351   
N41      N      0.853190000000     0.188040000000     0.771170000000    -0.207186   
N42      N      0.856360000000     0.185340000000     0.012210000000    -0.20701    
N43      N      0.817140000000     0.146610000000     0.512180000000    -0.207195   
N44      N      0.814910000000     0.149290000000     0.271190000000    -0.207114   
N45      N      0.155080000000     0.341940000000     0.678100000000    -0.207638   
N46      N      0.150350000000     0.334980000000     0.437480000000    -0.207609   
N47      N      0.187090000000     0.331790000000     0.937230000000    -0.207509   
N48      N      0.188690000000     0.337780000000     0.178000000000    -0.207624   
N49      N      0.924100000000     0.214470000000     0.180680000000    -0.207102   
N50      N      0.080530000000     0.293770000000     0.270290000000    -0.20714    
N51      N      0.414660000000     0.455740000000     0.434580000000    -0.207436   
N52      N      0.257620000000     0.378640000000     0.345760000000    -0.207437   
N53      N      0.518890000000     0.995820000000     0.604670000000    -0.207269   
N54      N      0.521970000000     0.001200000000     0.845620000000    -0.207284   
N55      N      0.483020000000     0.998990000000     0.104970000000    -0.207287   
N56      N      0.485190000000     0.005140000000     0.345830000000    -0.207313   
N57      N      0.591230000000     0.041630000000     0.012760000000    -0.207116   
N58      N      0.747480000000     0.120230000000     0.102910000000    -0.207195   
N59      N      0.185890000000     0.855350000000     0.438690000000    -0.207348   
N60      N      0.189640000000     0.852520000000     0.679460000000    -0.207318   
N61      N      0.148980000000     0.817480000000     0.938650000000    -0.207306   
N62      N      0.151180000000     0.813820000000     0.179680000000    -0.207242   
N63      N      0.257760000000     0.880990000000     0.847750000000    -0.207238   
N64      N      0.414060000000     0.958590000000     0.937690000000    -0.207219   
N65      N      0.814830000000     0.662860000000     0.771880000000    -0.207372   
N66      N      0.817370000000     0.669410000000     0.012600000000    -0.207272   
N67      N      0.852140000000     0.663710000000     0.271890000000    -0.2074     
N68      N      0.856220000000     0.669550000000     0.512860000000    -0.20738    
N69      N      0.747480000000     0.623090000000     0.603160000000    -0.20728    
N70      N      0.590940000000     0.545000000000     0.514030000000    -0.207185   
N71      N      0.923870000000     0.709630000000     0.682050000000    -0.207445   
N72      N      0.081160000000     0.789270000000     0.769940000000    -0.207505   
O1       O      0.845620000000     0.645010000000     0.582920000000    -0.557048   
O2       O      0.823710000000     0.640940000000     0.708070000000    -0.556563   
O3       O      0.791320000000     0.621910000000     0.629190000000    -0.555458   
O4       O      0.878280000000     0.664200000000     0.661730000000    -0.553721   
O5       O      0.879520000000     0.710410000000     0.658130000000    -0.559736   
O6       O      0.793790000000     0.668460000000     0.620770000000    -0.558311   
O7       O      0.824460000000     0.686780000000     0.701430000000    -0.558188   
O8       O      0.849060000000     0.692140000000     0.577340000000    -0.558006   
O9       O      0.159980000000     0.803980000000     0.868570000000    -0.55752    
O10      O      0.181490000000     0.821970000000     0.743350000000    -0.557012   
O11      O      0.214100000000     0.835720000000     0.822030000000    -0.556347   
O12      O      0.127130000000     0.790140000000     0.789970000000    -0.554654   
O13      O      0.125220000000     0.834750000000     0.793690000000    -0.558802   
O14      O      0.211100000000     0.879500000000     0.830510000000    -0.557444   
O15      O      0.180090000000     0.866720000000     0.750020000000    -0.557623   
O16      O      0.155980000000     0.847350000000     0.874310000000    -0.557205   
O17      O      0.489850000000     0.975390000000     0.041470000000    -0.557724   
O18      O      0.511640000000     0.977610000000     0.916520000000    -0.555764   
O19      O      0.544160000000     0.996690000000     0.995960000000    -0.555486   
O20      O      0.457520000000     0.956410000000     0.962740000000    -0.557212   
O21      O      0.461090000000     0.003480000000     0.954720000000    -0.556479   
O22      O      0.547710000000     0.043750000000     0.987890000000    -0.557929   
O23      O      0.515350000000     0.024780000000     0.909240000000    -0.558961   
O24      O      0.493580000000     0.022560000000     0.034100000000    -0.556912   
O25      O      0.157520000000     0.311730000000     0.373840000000    -0.558041   
O26      O      0.177950000000     0.313870000000     0.248480000000    -0.558501   
O27      O      0.211450000000     0.333520000000     0.326480000000    -0.554767   
O28      O      0.124250000000     0.292210000000     0.295820000000    -0.556601   
O29      O      0.127430000000     0.339010000000     0.286470000000    -0.556967   
O30      O      0.213590000000     0.380130000000     0.321990000000    -0.558655   
O31      O      0.182230000000     0.361320000000     0.241940000000    -0.557951   
O32      O      0.159140000000     0.357950000000     0.366420000000    -0.558057   
O33      O      0.826120000000     0.136010000000     0.200930000000    -0.555762   
O34      O      0.849090000000     0.155170000000     0.076210000000    -0.557291   
O35      O      0.880730000000     0.168740000000     0.155630000000    -0.55717    
O36      O      0.794390000000     0.122400000000     0.120860000000    -0.555907   
O37      O      0.790850000000     0.165970000000     0.127880000000    -0.557233   
O38      O      0.877200000000     0.212320000000     0.162620000000    -0.555763   
O39      O      0.845440000000     0.198710000000     0.082570000000    -0.556291   
O40      O      0.822490000000     0.179560000000     0.207230000000    -0.557984   
O41      O      0.514730000000     0.486830000000     0.409010000000    -0.556659   
O42      O      0.492650000000     0.469000000000     0.534110000000    -0.55702    
O43      O      0.460100000000     0.455670000000     0.455210000000    -0.553688   
O44      O      0.547020000000     0.500060000000     0.487970000000    -0.555351   
O45      O      0.544720000000     0.544240000000     0.496300000000    -0.558373   
O46      O      0.459040000000     0.500740000000     0.458730000000    -0.559723   
O47      O      0.489400000000     0.512800000000     0.539620000000    -0.557931   
O48      O      0.514150000000     0.532000000000     0.415560000000    -0.55848    
O49      O      0.185380000000     0.363040000000     0.742720000000    -0.55618    
O50      O      0.202370000000     0.356530000000     0.867540000000    -0.558759   
O51      O      0.215360000000     0.337900000000     0.788130000000    -0.557061   
O52      O      0.172660000000     0.381580000000     0.823000000000    -0.558123   
O53      O      0.127310000000     0.335790000000     0.827060000000    -0.558093   
O54      O      0.169980000000     0.292140000000     0.792090000000    -0.559292   
O55      O      0.157230000000     0.310620000000     0.872360000000    -0.5578     
O56      O      0.140210000000     0.317190000000     0.747730000000    -0.560751   
O57      O      0.359910000000     0.180150000000     0.706890000000    -0.557526   
O58      O      0.356420000000     0.197950000000     0.581580000000    -0.55784    
O59      O      0.337100000000     0.211630000000     0.659950000000    -0.555824   
O60      O      0.379090000000     0.166560000000     0.628450000000    -0.557298   
O61      O      0.332510000000     0.122610000000     0.619820000000    -0.558227   
O62      O      0.290770000000     0.166840000000     0.656210000000    -0.559482   
O63      O      0.309220000000     0.154420000000     0.575780000000    -0.557614   
O64      O      0.313990000000     0.135220000000     0.700140000000    -0.557977   
O65      O      0.024340000000     0.534170000000     0.916080000000    -0.558934   
O66      O      0.030860000000     0.517210000000     0.040910000000    -0.556275   
O67      O      0.049440000000     0.504520000000     0.960650000000    -0.558453   
O68      O      0.005680000000     0.547140000000     0.995450000000    -0.556688   
O69      O      0.959980000000     0.501700000000     0.991500000000    -0.559068   
O70      O      0.003710000000     0.459110000000     0.956580000000    -0.557961   
O71      O      0.985070000000     0.471980000000     0.035880000000    -0.561155   
O72      O      0.978500000000     0.488970000000     0.911260000000    -0.558488   
O73      O      0.689190000000     0.864570000000     0.249050000000    -0.557443   
O74      O      0.694550000000     0.847330000000     0.374080000000    -0.557012   
O75      O      0.712760000000     0.833520000000     0.294880000000    -0.556471   
O76      O      0.670870000000     0.878420000000     0.328130000000    -0.555361   
O77      O      0.624630000000     0.833480000000     0.325440000000    -0.559965   
O78      O      0.666170000000     0.789420000000     0.287430000000    -0.558855   
O79      O      0.648690000000     0.802240000000     0.368430000000    -0.557786   
O80      O      0.642070000000     0.820840000000     0.244350000000    -0.557244   
O81      O      0.865710000000     0.688160000000     0.201780000000    -0.55807    
O82      O      0.847900000000     0.691690000000     0.076500000000    -0.55759    
O83      O      0.834330000000     0.710860000000     0.154970000000    -0.557434   
O84      O      0.879370000000     0.668860000000     0.123390000000    -0.555636   
O85      O      0.834610000000     0.622500000000     0.127150000000    -0.559416   
O86      O      0.790400000000     0.664250000000     0.163560000000    -0.558424   
O87      O      0.803010000000     0.645730000000     0.083220000000    -0.557912   
O88      O      0.822190000000     0.640950000000     0.207600000000    -0.557456   
O89      O      0.515550000000     0.026500000000     0.410170000000    -0.557039   
O90      O      0.532750000000     0.021190000000     0.535230000000    -0.557602   
O91      O      0.546600000000     0.002820000000     0.456190000000    -0.555259   
O92      O      0.501750000000     0.044760000000     0.489320000000    -0.5568     
O93      O      0.457660000000     0.998160000000     0.496800000000    -0.558806   
O94      O      0.501670000000     0.956560000000     0.458910000000    -0.559988   
O95      O      0.489040000000     0.974050000000     0.539960000000    -0.557246   
O96      O      0.470470000000     0.980620000000     0.415850000000    -0.557659   
O97      O      0.309220000000     0.155330000000     0.075310000000    -0.556691   
O98      O      0.313300000000     0.177260000000     0.200450000000    -0.55703    
O99      O      0.332480000000     0.209920000000     0.121660000000    -0.554282   
O100     O      0.290210000000     0.122940000000     0.154180000000    -0.555804   
O101     O      0.336730000000     0.125400000000     0.162570000000    -0.55902    
O102     O      0.378660000000     0.211150000000     0.125270000000    -0.56035    
O103     O      0.360400000000     0.180680000000     0.206030000000    -0.558134   
O104     O      0.355040000000     0.156090000000     0.081920000000    -0.558449   
O105     O      0.490320000000     0.513170000000     0.040510000000    -0.557232   
O106     O      0.472360000000     0.491810000000     0.915250000000    -0.55748    
O107     O      0.458480000000     0.458860000000     0.993750000000    -0.555274   
O108     O      0.504120000000     0.545890000000     0.961950000000    -0.556722   
O109     O      0.547850000000     0.542840000000     0.953410000000    -0.557743   
O110     O      0.503040000000     0.456900000000     0.989990000000    -0.559562   
O111     O      0.515680000000     0.487760000000     0.909470000000    -0.55749    
O112     O      0.535020000000     0.511720000000     0.033810000000    -0.557564   
O113     O      0.137270000000     0.824470000000     0.249700000000    -0.556782   
O114     O      0.155120000000     0.846470000000     0.374840000000    -0.556539   
O115     O      0.168410000000     0.878820000000     0.295920000000    -0.555812   
O116     O      0.123880000000     0.791860000000     0.328560000000    -0.554316   
O117     O      0.168860000000     0.790680000000     0.325020000000    -0.560099   
O118     O      0.212490000000     0.876400000000     0.287540000000    -0.559054   
O119     O      0.200210000000     0.845780000000     0.368250000000    -0.558364   
O120     O      0.180980000000     0.821080000000     0.244170000000    -0.557792   
O121     O      0.981720000000     0.509620000000     0.535140000000    -0.558872   
O122     O      0.979610000000     0.489250000000     0.409770000000    -0.558652   
O123     O      0.960050000000     0.455920000000     0.487730000000    -0.556884   
O124     O      0.001410000000     0.543170000000     0.457210000000    -0.555074   
O125     O      0.047970000000     0.545250000000     0.461710000000    -0.559309   
O126     O      0.006810000000     0.459050000000     0.497080000000    -0.557121   
O127     O      0.025780000000     0.490810000000     0.417190000000    -0.558107   
O128     O      0.029120000000     0.513840000000     0.541700000000    -0.558091   
O129     O      0.822990000000     0.180710000000     0.707200000000    -0.557385   
O130     O      0.803830000000     0.157780000000     0.582450000000    -0.555622   
O131     O      0.790190000000     0.126020000000     0.662510000000    -0.556421   
O132     O      0.836580000000     0.212380000000     0.627810000000    -0.557907   
O133     O      0.880090000000     0.208790000000     0.620780000000    -0.556646   
O134     O      0.833710000000     0.122430000000     0.655520000000    -0.557898   
O135     O      0.847320000000     0.154070000000     0.576170000000    -0.558296   
O136     O      0.866480000000     0.177030000000     0.700810000000    -0.556726   
O137     O      0.645690000000     0.843420000000     0.867760000000    -0.555735   
O138     O      0.643530000000     0.821670000000     0.742790000000    -0.557907   
O139     O      0.624590000000     0.789300000000     0.821480000000    -0.557997   
O140     O      0.664730000000     0.875970000000     0.788340000000    -0.556099   
O141     O      0.711790000000     0.879600000000     0.796420000000    -0.558548   
O142     O      0.671660000000     0.792950000000     0.829500000000    -0.557076   
O143     O      0.690710000000     0.825480000000     0.750170000000    -0.557052   
O144     O      0.692860000000     0.847200000000     0.875040000000    -0.559184   
V1       V      0.834670000000     0.641170000000     0.645750000000     1.38856    
V2       V      0.836780000000     0.691270000000     0.639140000000     1.40083    
V3       V      0.170770000000     0.811190000000     0.805710000000     1.39164    
V4       V      0.168010000000     0.858830000000     0.812420000000     1.39742    
V5       V      0.500690000000     0.974670000000     0.979430000000     1.39258    
V6       V      0.504540000000     0.025490000000     0.971240000000     1.39663    
V7       V      0.167690000000     0.310980000000     0.311450000000     1.39374    
V8       V      0.170680000000     0.361440000000     0.303880000000     1.39741    
V9       V      0.837700000000     0.143840000000     0.138200000000     1.39263    
V10      V      0.833890000000     0.190880000000     0.145280000000     1.39419    
V11      V      0.503680000000     0.476100000000     0.471310000000     1.38885    
V12      V      0.501760000000     0.524200000000     0.477830000000     1.40103    
V13      V      0.195740000000     0.361580000000     0.805050000000     1.39458    
V14      V      0.146910000000     0.312120000000     0.810100000000     1.40086    
V15      V      0.359970000000     0.190840000000     0.644490000000     1.3938     
V16      V      0.309790000000     0.143010000000     0.637700000000     1.3988     
V17      V      0.029400000000     0.527550000000     0.978570000000     1.3953     
V18      V      0.980000000000     0.478660000000     0.973510000000     1.40073    
V19      V      0.693690000000     0.857730000000     0.311760000000     1.39184    
V20      V      0.643560000000     0.809730000000     0.306180000000     1.39924    
V21      V      0.858590000000     0.691740000000     0.138890000000     1.39409    
V22      V      0.810790000000     0.641530000000     0.145670000000     1.39859    
V23      V      0.525930000000     0.025670000000     0.472500000000     1.39238    
V24      V      0.477950000000     0.975520000000     0.478120000000     1.39946    
V25      V      0.309460000000     0.166300000000     0.137630000000     1.38949    
V26      V      0.359530000000     0.168400000000     0.144220000000     1.40189    
V27      V      0.479560000000     0.502520000000     0.978140000000     1.39262    
V28      V      0.527150000000     0.499710000000     0.971380000000     1.39827    
V29      V      0.144390000000     0.835460000000     0.312520000000     1.38922    
V30      V      0.192390000000     0.833420000000     0.305960000000     1.40137    
V31      V      0.978840000000     0.499390000000     0.472160000000     1.39398    
V32      V      0.029250000000     0.502320000000     0.479750000000     1.39891    
V33      V      0.811660000000     0.169340000000     0.645200000000     1.39324    
V34      V      0.858640000000     0.165470000000     0.638110000000     1.39556    
V35      V      0.642780000000     0.832480000000     0.804830000000     1.3932     
V36      V      0.693600000000     0.836420000000     0.813030000000     1.39754    


