data_structure

_audit_creation_method RASPA-1.0
_audit_creation_date 2023-6-5
_audit_author_name 'Poobodin Mano'

_cell_length_a    48.8488
_cell_length_b    48.8451
_cell_length_c    29.364
_cell_angle_alpha 89.9813
_cell_angle_beta  90.0187
_cell_angle_gamma 119.969
_cell_volume      60695.5

_symmetry_cell_setting          triclinic
_symmetry_space_group_name_Hall 'P 1'
_symmetry_space_group_name_H-M  'P 1'
_symmetry_Int_Tables_number     1

_symmetry_equiv_pos_as_xyz 'x,y,z'

loop_
_atom_site_label
_atom_site_type_symbol
_atom_site_fract_x
_atom_site_fract_y
_atom_site_fract_z
_atom_site_charge
C1       C      0.849960000000     0.666650000000     0.569950000000     0.481478   
C2       C      0.818530000000     0.653350000000     0.737050000000     0.481797   
C3       C      0.776240000000     0.630320000000     0.628930000000     0.481048   
C4       C      0.891260000000     0.690030000000     0.678320000000     0.481977   
C5       C      0.186100000000     0.843440000000     0.722590000000     0.47987    
C6       C      0.154910000000     0.822280000000     0.889490000000     0.480299   
C7       C      0.113080000000     0.803260000000     0.782220000000     0.481473   
C8       C      0.228200000000     0.862190000000     0.830420000000     0.481163   
C9       C      0.486660000000     0.998440000000     0.066000000000     0.480169   
C10      C      0.515990000000     0.003260000000     0.898960000000     0.48111    
C11      C      0.559310000000     0.029670000000     0.005120000000     0.482208   
C12      C      0.443480000000     0.972310000000     0.959780000000     0.481178   
C13      C      0.185050000000     0.342340000000     0.224590000000     0.482114   
C14      C      0.155030000000     0.334360000000     0.391620000000     0.480543   
C15      C      0.112470000000     0.308940000000     0.283680000000     0.481516   
C16      C      0.227890000000     0.367320000000     0.330900000000     0.481897   
C17      C      0.820410000000     0.155350000000     0.232670000000     0.480136   
C18      C      0.848690000000     0.180640000000     0.065340000000     0.480546   
C19      C      0.892380000000     0.198190000000     0.171560000000     0.481086   
C20      C      0.776640000000     0.137840000000     0.126490000000     0.480901   
C21      C      0.517520000000     0.512340000000     0.396970000000     0.479175   
C22      C      0.485940000000     0.490430000000     0.563690000000     0.47979    
C23      C      0.444370000000     0.474160000000     0.456000000000     0.480671   
C24      C      0.559390000000     0.528470000000     0.504820000000     0.47971    
C25      C      0.156390000000     0.342960000000     0.724420000000     0.481187   
C26      C      0.178270000000     0.336490000000     0.892020000000     0.481014   
C27      C      0.197030000000     0.311410000000     0.786460000000     0.480511   
C28      C      0.137460000000     0.368010000000     0.830590000000     0.479225   
C29      C      0.332970000000     0.155090000000     0.726360000000     0.479606   
C30      C      0.325520000000     0.179570000000     0.559820000000     0.480098   
C31      C      0.302190000000     0.197830000000     0.668020000000     0.480106   
C32      C      0.356310000000     0.137070000000     0.617700000000     0.480472   
C33      C      0.000810000000     0.493200000000     0.054490000000     0.479418   
C34      C      0.991310000000     0.513870000000     0.887110000000     0.482568   
C35      C      0.967220000000     0.532870000000     0.993940000000     0.478589   
C36      C      0.024580000000     0.474270000000     0.948070000000     0.478467   
C37      C      0.662590000000     0.847600000000     0.230140000000     0.48035    
C38      C      0.665230000000     0.821230000000     0.397210000000     0.480033   
C39      C      0.689250000000     0.802110000000     0.289970000000     0.4809     
C40      C      0.638590000000     0.866790000000     0.336860000000     0.480585   
C41      C      0.844430000000     0.666390000000     0.237750000000     0.481126   
C42      C      0.818540000000     0.665400000000     0.070630000000     0.481779   
C43      C      0.799970000000     0.693320000000     0.175960000000     0.481007   
C44      C      0.861320000000     0.639530000000     0.129740000000     0.483256   
C45      C      0.489690000000     0.006860000000     0.398600000000     0.481176   
C46      C      0.513010000000     0.001940000000     0.566130000000     0.481006   
C47      C      0.532060000000     0.976800000000     0.460910000000     0.480553   
C48      C      0.470610000000     0.031520000000     0.504540000000     0.480022   
C49      C      0.332650000000     0.155360000000     0.059250000000     0.479916   
C50      C      0.335270000000     0.182110000000     0.226930000000     0.479333   
C51      C      0.361630000000     0.226820000000     0.121580000000     0.479704   
C52      C      0.306410000000     0.110430000000     0.164060000000     0.480421   
C53      C      0.513760000000     0.516840000000     0.064190000000     0.481063   
C54      C      0.489960000000     0.489260000000     0.896530000000     0.480331   
C55      C      0.472090000000     0.444730000000     0.001640000000     0.480749   
C56      C      0.531510000000     0.561220000000     0.959060000000     0.480845   
C57      C      0.157490000000     0.820660000000     0.222260000000     0.479905   
C58      C      0.181790000000     0.848390000000     0.389740000000     0.480728   
C59      C      0.200300000000     0.892510000000     0.283830000000     0.480341   
C60      C      0.138750000000     0.776570000000     0.328140000000     0.479722   
C61      C      0.000330000000     0.514790000000     0.554520000000     0.479692   
C62      C      0.996080000000     0.487090000000     0.387140000000     0.482525   
C63      C      0.969340000000     0.442830000000     0.492730000000     0.4808     
C64      C      0.027470000000     0.559080000000     0.449300000000     0.479337   
C65      C      0.821060000000     0.155710000000     0.565600000000     0.480198   
C66      C      0.842990000000     0.185620000000     0.732640000000     0.479894   
C67      C      0.860900000000     0.228330000000     0.625200000000     0.480262   
C68      C      0.802770000000     0.112800000000     0.672040000000     0.480567   
C69      C      0.672510000000     0.851450000000     0.897400000000     0.479258   
C70      C      0.665330000000     0.821670000000     0.730320000000     0.479534   
C71      C      0.641120000000     0.778760000000     0.837370000000     0.479363   
C72      C      0.696900000000     0.894270000000     0.790500000000     0.479589   
C73      C      0.754960000000     0.062410000000     0.682610000000     0.0902943  
C74      C      0.804760000000     0.070160000000     0.706720000000     0.0752973  
C75      C      0.740110000000     0.031460000000     0.699700000000    -0.0907668  
C76      C      0.710490000000     0.972340000000     0.756700000000    -0.0878223  
C77      C      0.790420000000     0.039830000000     0.725250000000    -0.0892625  
C78      C      0.741900000000     0.987110000000     0.741300000000     0.0346869  
C79      C      0.757650000000     0.019870000000     0.722030000000     0.0379082  
C80      C      0.695810000000     0.941330000000     0.773010000000     0.0758815  
C81      C      0.742900000000     0.939490000000     0.762170000000     0.0752793  
C82      C      0.758000000000     0.970080000000     0.744320000000    -0.0882021  
C83      C      0.735160000000     0.071750000000     0.658160000000     0.0393592  
C84      C      0.966800000000     0.392620000000     0.505000000000     0.0902944  
C85      C      0.925000000000     0.400840000000     0.528800000000     0.0753557  
C86      C      0.951240000000     0.362270000000     0.524200000000    -0.0904917  
C87      C      0.923830000000     0.305620000000     0.586050000000    -0.0882111  
C88      C      0.909570000000     0.371160000000     0.549450000000    -0.0889328  
C89      C      0.906480000000     0.319460000000     0.569800000000     0.0354049  
C90      C      0.922640000000     0.351360000000     0.547700000000     0.0373641  
C91      C      0.908270000000     0.275270000000     0.604760000000     0.0760851  
C92      C      0.858810000000     0.272460000000     0.595020000000     0.0756974  
C93      C      0.873490000000     0.302320000000     0.574780000000    -0.0883176  
C94      C      0.995450000000     0.401330000000     0.479640000000     0.0403088  
C95      C      0.075430000000     0.609810000000     0.441140000000     0.0898852  
C96      C      0.026420000000     0.601710000000     0.412540000000     0.074545   
C97      C      0.090820000000     0.640450000000     0.423010000000    -0.091011   
C98      C      0.121200000000     0.696990000000     0.360710000000    -0.0887014  
C99      C      0.041310000000     0.631980000000     0.393680000000    -0.0889393  
C100     C      0.090430000000     0.684020000000     0.377990000000     0.0353379  
C101     C      0.073960000000     0.651720000000     0.398310000000     0.037342   
C102     C      0.136840000000     0.727770000000     0.343590000000     0.0755715  
C103     C      0.091950000000     0.732970000000     0.358150000000     0.0755883  
C104     C      0.075770000000     0.702420000000     0.376120000000    -0.0885008  
C105     C      0.094610000000     0.600960000000     0.468170000000     0.0405282  
C106     C      0.535040000000     0.612300000000     0.950590000000     0.0905159  
C107     C      0.575840000000     0.603640000000     0.923170000000     0.0753565  
C108     C      0.550830000000     0.643030000000     0.932690000000    -0.0901172  
C109     C      0.578170000000     0.699840000000     0.870840000000    -0.0881108  
C110     C      0.591720000000     0.633950000000     0.904470000000    -0.0886747  
C111     C      0.595520000000     0.686390000000     0.888290000000     0.0357672  
C112     C      0.579160000000     0.654040000000     0.908610000000     0.0378238  
C113     C      0.593770000000     0.730580000000     0.853500000000     0.0760344  
C114     C      0.643430000000     0.734800000000     0.868120000000     0.0756002  
C115     C      0.628600000000     0.704310000000     0.886400000000    -0.0881783  
C116     C      0.506810000000     0.603700000000     0.976940000000     0.0438577  
C117     C      0.259410000000     0.058960000000     0.172440000000     0.0903979  
C118     C      0.309270000000     0.068170000000     0.198910000000     0.0754506  
C119     C      0.244970000000     0.028190000000     0.190070000000    -0.0907189  
C120     C      0.216630000000     0.971840000000     0.252400000000    -0.0878581  
C121     C      0.295340000000     0.037760000000     0.217280000000    -0.0887598  
C122     C      0.247120000000     0.985140000000     0.234040000000     0.0353123  
C123     C      0.262730000000     0.017430000000     0.213600000000     0.0385646  
C124     C      0.201590000000     0.941080000000     0.269500000000     0.0768449  
C125     C      0.246630000000     0.936520000000     0.253140000000     0.0756186  
C126     C      0.262230000000     0.967120000000     0.235090000000    -0.0876914  
C127     C      0.239310000000     0.067290000000     0.146720000000     0.0412231  
C128     C      0.468550000000     0.393660000000     0.010690000000     0.0897152  
C129     C      0.427470000000     0.402290000000     0.036980000000     0.0752736  
C130     C      0.452580000000     0.362920000000     0.028500000000    -0.0909266  
C131     C      0.424670000000     0.306210000000     0.090480000000    -0.0887699  
C132     C      0.411380000000     0.371950000000     0.055520000000    -0.0886029  
C133     C      0.407440000000     0.319520000000     0.072120000000     0.0354859  
C134     C      0.423990000000     0.351870000000     0.051910000000     0.037403   
C135     C      0.408970000000     0.275410000000     0.107480000000     0.0756502  
C136     C      0.359390000000     0.270840000000     0.090860000000     0.0758321  
C137     C      0.374350000000     0.301440000000     0.072920000000    -0.0880068  
C138     C      0.497100000000     0.402310000000     0.985140000000     0.0399265  
C139     C      0.639550000000     0.791120000000     0.465730000000     0.0887045  
C140     C      0.691470000000     0.835540000000     0.468510000000     0.0739655  
C141     C      0.639460000000     0.788650000000     0.513360000000    -0.0911442  
C142     C      0.690200000000     0.814070000000     0.615420000000    -0.089283   
C143     C      0.692020000000     0.833270000000     0.515810000000    -0.0895277  
C144     C      0.664410000000     0.809980000000     0.589390000000     0.0353719  
C145     C      0.665540000000     0.810200000000     0.538860000000     0.0371048  
C146     C      0.689630000000     0.816660000000     0.662800000000     0.0748747  
C147     C      0.638450000000     0.810690000000     0.659210000000     0.0759516  
C148     C      0.638070000000     0.807610000000     0.611930000000    -0.0889196  
C149     C      0.611470000000     0.767510000000     0.442500000000     0.0434613  
C150     C      0.636570000000     0.836560000000     0.156520000000     0.0905851  
C151     C      0.690930000000     0.875070000000     0.164040000000     0.0743736  
C152     C      0.639010000000     0.840090000000     0.109100000000    -0.0906336  
C153     C      0.647120000000     0.861090000000     0.010670000000    -0.0886097  
C154     C      0.693930000000     0.878920000000     0.116820000000    -0.0893366  
C155     C      0.671110000000     0.862340000000     0.038260000000     0.035367   
C156     C      0.667970000000     0.860850000000     0.088700000000     0.0376333  
C157     C      0.648570000000     0.858650000000     0.963490000000     0.0757369  
C158     C      0.697750000000     0.860290000000     0.969790000000     0.0750122  
C159     C      0.697040000000     0.862760000000     0.017160000000    -0.0880446  
C160     C      0.605290000000     0.815490000000     0.174390000000     0.0442977  
C161     C      0.686210000000     0.755790000000     0.254100000000     0.0893391  
C162     C      0.735300000000     0.798340000000     0.279500000000     0.0745688  
C163     C      0.701750000000     0.740280000000     0.237300000000    -0.0903803  
C164     C      0.737220000000     0.704850000000     0.224010000000    -0.0886538  
C165     C      0.751160000000     0.783140000000     0.263660000000    -0.0895308  
C166     C      0.751330000000     0.737880000000     0.223290000000     0.0353144  
C167     C      0.734530000000     0.753910000000     0.241740000000     0.0371937  
C168     C      0.753480000000     0.690310000000     0.206970000000     0.0758911  
C169     C      0.797520000000     0.740180000000     0.188700000000     0.0752805  
C170     C      0.781750000000     0.755470000000     0.204770000000    -0.0889614  
C171     C      0.652470000000     0.740240000000     0.246070000000     0.0445104  
C172     C      0.536310000000     0.929710000000     0.452860000000     0.090323   
C173     C      0.576780000000     0.979270000000     0.425210000000     0.0743892  
C174     C      0.552030000000     0.914900000000     0.434470000000    -0.0911399  
C175     C      0.577670000000     0.885720000000     0.369820000000    -0.0881446  
C176     C      0.592700000000     0.964950000000     0.406110000000    -0.0883584  
C177     C      0.595790000000     0.916070000000     0.388300000000     0.0357309  
C178     C      0.580070000000     0.932270000000     0.409830000000     0.0376262  
C179     C      0.592400000000     0.869880000000     0.352100000000     0.0772109  
C180     C      0.642820000000     0.913890000000     0.367960000000     0.0756628  
C181     C      0.628800000000     0.930310000000     0.386560000000    -0.0878756  
C182     C      0.508450000000     0.910030000000     0.479910000000     0.0404248  
C183     C      0.964210000000     0.499270000000     0.814170000000     0.0904373  
C184     C      0.017300000000     0.541330000000     0.819890000000     0.074155   
C185     C      0.965920000000     0.502000000000     0.766580000000    -0.0909803  
C186     C      0.023390000000     0.525690000000     0.674740000000    -0.0902034  
C187     C      0.019620000000     0.544290000000     0.772640000000    -0.0914304  
C188     C      0.997040000000     0.524770000000     0.695140000000     0.0373921  
C189     C      0.994030000000     0.524050000000     0.745420000000     0.0388562  
C190     C      0.024560000000     0.523240000000     0.627490000000     0.0769638  
C191     C      0.975000000000     0.520680000000     0.620020000000     0.0778313  
C192     C      0.972930000000     0.522780000000     0.667170000000    -0.0899674  
C193     C      0.933870000000     0.476480000000     0.833130000000     0.042409   
C194     C      0.028840000000     0.507190000000     0.126820000000     0.0889181  
C195     C      0.976150000000     0.464310000000     0.121460000000     0.0758213  
C196     C      0.027950000000     0.503410000000     0.174240000000    -0.0895635  
C197     C      0.023230000000     0.481780000000     0.272900000000    -0.0908862  
C198     C      0.974700000000     0.460210000000     0.168550000000    -0.0872881  
C199     C      0.998130000000     0.478620000000     0.246020000000     0.0393962  
C200     C      0.000480000000     0.480320000000     0.195600000000     0.0339284  
C201     C      0.021630000000     0.483240000000     0.320290000000     0.0763606  
C202     C      0.970610000000     0.477570000000     0.315090000000     0.0768966  
C203     C      0.971320000000     0.475770000000     0.267740000000    -0.0903944  
C204     C      0.058590000000     0.531170000000     0.107740000000     0.0420609  
C205     C      0.859380000000     0.602170000000     0.075600000000     0.0901292  
C206     C      0.906620000000     0.635150000000     0.116920000000     0.0774611  
C207     C      0.874050000000     0.587120000000     0.054320000000    -0.0906597  
C208     C      0.904370000000     0.547090000000     0.034730000000    -0.0876487  
C209     C      0.921650000000     0.620390000000     0.096590000000    -0.0891622  
C210     C      0.921210000000     0.579610000000     0.043810000000     0.035444   
C211     C      0.905390000000     0.595840000000     0.065180000000     0.0374782  
C212     C      0.919950000000     0.531990000000     0.016960000000     0.07592    
C213     C      0.968450000000     0.580410000000     0.016180000000     0.0758978  
C214     C      0.953580000000     0.596300000000     0.033490000000    -0.0879108  
C215     C      0.829010000000     0.596320000000     0.057770000000     0.0335599  
C216     C      0.309900000000     0.123950000000     0.794990000000     0.0890618  
C217     C      0.359600000000     0.171410000000     0.797280000000     0.0741457  
C218     C      0.310250000000     0.121760000000     0.842590000000    -0.091272   
C219     C      0.306750000000     0.140600000000     0.940350000000    -0.0883822  
C220     C      0.360620000000     0.169450000000     0.844600000000    -0.0893542  
C221     C      0.334020000000     0.144920000000     0.918330000000     0.0357166  
C222     C      0.335330000000     0.144980000000     0.867850000000     0.0376884  
C223     C      0.306500000000     0.143440000000     0.987570000000     0.0767852  
C224     C      0.359030000000     0.153020000000     0.992200000000     0.0754951  
C225     C      0.360260000000     0.150840000000     0.944810000000    -0.0883616  
C226     C      0.283060000000     0.098400000000     0.771990000000     0.0435035  
C227     C      0.298470000000     0.166620000000     0.486760000000     0.0902181  
C228     C      0.352110000000     0.207330000000     0.492950000000     0.0743602  
C229     C      0.300320000000     0.169690000000     0.439210000000    -0.0902558  
C230     C      0.307380000000     0.189520000000     0.339660000000    -0.0883185  
C231     C      0.354510000000     0.210720000000     0.445700000000    -0.0896413  
C232     C      0.331740000000     0.192100000000     0.367740000000     0.0356026  
C233     C      0.328710000000     0.191250000000     0.418170000000     0.0376657  
C234     C      0.309430000000     0.187300000000     0.292480000000     0.0761665  
C235     C      0.359550000000     0.191150000000     0.299980000000     0.0754674  
C236     C      0.358330000000     0.193570000000     0.347240000000    -0.0885744  
C237     C      0.267820000000     0.144340000000     0.505380000000     0.0448493  
C238     C      0.354940000000     0.092240000000     0.579650000000     0.0895898  
C239     C      0.403200000000     0.134780000000     0.607430000000     0.0746593  
C240     C      0.371200000000     0.077460000000     0.562890000000    -0.0903303  
C241     C      0.407110000000     0.042630000000     0.550490000000    -0.0883016  
C242     C      0.419770000000     0.120250000000     0.591700000000    -0.0891797  
C243     C      0.421310000000     0.075660000000     0.551100000000     0.0353401  
C244     C      0.403900000000     0.091310000000     0.568820000000     0.0374197  
C245     C      0.423670000000     0.028310000000     0.533850000000     0.0760613  
C246     C      0.468410000000     0.078410000000     0.518940000000     0.0755358  
C247     C      0.452310000000     0.093510000000     0.534600000000    -0.0880428  
C248     C      0.321420000000     0.076650000000     0.569790000000     0.0439956  
C249     C      0.027170000000     0.426400000000     0.937410000000     0.088948   
C250     C      0.069180000000     0.476180000000     0.913340000000     0.0759036  
C251     C      0.043310000000     0.411550000000     0.920370000000    -0.0893308  
C252     C      0.072970000000     0.381790000000     0.863850000000    -0.08785    
C253     C      0.085210000000     0.461830000000     0.894880000000    -0.088189   
C254     C      0.089540000000     0.413290000000     0.878920000000     0.0356963  
C255     C      0.072460000000     0.429060000000     0.898110000000     0.0374095  
C256     C      0.089320000000     0.367060000000     0.847750000000     0.0761149  
C257     C      0.138180000000     0.414250000000     0.858030000000     0.0762945  
C258     C      0.122660000000     0.429420000000     0.875660000000    -0.0873844  
C259     C      0.998000000000     0.406580000000     0.961700000000     0.0424117  
C260     C      0.245100000000     0.309270000000     0.775280000000     0.0904475  
C261     C      0.195230000000     0.266620000000     0.752800000000     0.0755433  
C262     C      0.260000000000     0.293110000000     0.758480000000    -0.090138   
C263     C      0.289430000000     0.262790000000     0.702420000000    -0.087673   
C264     C      0.209600000000     0.250580000000     0.734530000000    -0.0889664  
C265     C      0.258110000000     0.246390000000     0.718250000000     0.0355389  
C266     C      0.242420000000     0.263600000000     0.737170000000     0.0376227  
C267     C      0.303860000000     0.246240000000     0.685940000000     0.0760229  
C268     C      0.256750000000     0.197540000000     0.697740000000     0.0767111  
C269     C      0.241940000000     0.213250000000     0.715800000000    -0.0876019  
C270     C      0.264960000000     0.338870000000     0.798570000000     0.0404599  
C271     C      0.471770000000     0.504310000000     0.635890000000     0.089704   
C272     C      0.483140000000     0.462430000000     0.631110000000     0.0743526  
C273     C      0.469850000000     0.501320000000     0.683440000000    -0.0907082  
C274     C      0.455490000000     0.481620000000     0.783060000000    -0.0881513  
C275     C      0.481490000000     0.459140000000     0.678390000000    -0.0896903  
C276     C      0.477270000000     0.478540000000     0.755690000000     0.0356868  
C277     C      0.475580000000     0.479220000000     0.705210000000     0.0376977  
C278     C      0.459410000000     0.484030000000     0.830320000000     0.0764796  
C279     C      0.505380000000     0.479510000000     0.824160000000     0.0762623  
C280     C      0.502030000000     0.476810000000     0.776900000000    -0.0882827  
C281     C      0.464340000000     0.527070000000     0.616370000000     0.0420871  
C282     C      0.502080000000     0.531520000000     0.137550000000     0.0905367  
C283     C      0.541180000000     0.516370000000     0.130570000000     0.0749197  
C284     C      0.505660000000     0.532940000000     0.184990000000    -0.0903684  
C285     C      0.527950000000     0.547100000000     0.283300000000    -0.0887421  
C286     C      0.544950000000     0.517380000000     0.177790000000    -0.0892402  
C287     C      0.528170000000     0.523720000000     0.256020000000     0.0357153  
C288     C      0.526650000000     0.525140000000     0.205610000000     0.0377815  
C289     C      0.525760000000     0.543570000000     0.330580000000     0.0761328  
C290     C      0.525230000000     0.494900000000     0.324750000000     0.075284   
C291     C      0.527640000000     0.497810000000     0.277360000000    -0.0886597  
C292     C      0.480790000000     0.541340000000     0.119230000000     0.0447585  
C293     C      0.863080000000     0.169140000000     0.991580000000     0.0896518  
C294     C      0.847870000000     0.208160000000     0.999300000000     0.0745209  
C295     C      0.864150000000     0.172760000000     0.944160000000    -0.0908917  
C296     C      0.877710000000     0.194930000000     0.846050000000    -0.0894689  
C297     C      0.848610000000     0.212020000000     0.952130000000    -0.0892201  
C298     C      0.854630000000     0.195500000000     0.873580000000     0.035686   
C299     C      0.856200000000     0.193780000000     0.923940000000     0.0374866  
C300     C      0.874050000000     0.192930000000     0.798830000000     0.0757834  
C301     C      0.825940000000     0.193470000000     0.805120000000     0.075613   
C302     C      0.828930000000     0.195600000000     0.852520000000    -0.0882793  
C303     C      0.872960000000     0.147780000000     0.009380000000     0.0413412  
C304     C      0.815640000000     0.125050000000     0.301110000000     0.0884951  
C305     C      0.809740000000     0.170470000000     0.304170000000     0.0743919  
C306     C      0.813470000000     0.122650000000     0.348720000000    -0.0915114  
C307     C      0.788890000000     0.148350000000     0.450670000000    -0.0892386  
C308     C      0.807080000000     0.168250000000     0.351460000000    -0.0897799  
C309     C      0.810620000000     0.144270000000     0.424750000000     0.0355325  
C310     C      0.809760000000     0.144660000000     0.374310000000     0.0372543  
C311     C      0.791940000000     0.150800000000     0.498010000000     0.0761135  
C312     C      0.837110000000     0.144710000000     0.494620000000     0.0761287  
C313     C      0.834490000000     0.141730000000     0.447320000000    -0.089151   
C314     C      0.819500000000     0.101080000000     0.277780000000     0.0417318  
C315     C      0.170000000000     0.369510000000     0.651090000000     0.0901284  
C316     C      0.129430000000     0.315800000000     0.657480000000     0.0745717  
C317     C      0.167110000000     0.367450000000     0.603560000000    -0.0910079  
C318     C      0.145700000000     0.359870000000     0.504880000000    -0.089102   
C319     C      0.126330000000     0.313130000000     0.610230000000    -0.0902502  
C320     C      0.144600000000     0.335960000000     0.532380000000     0.0355782  
C321     C      0.145690000000     0.338930000000     0.582700000000     0.0377478  
C322     C      0.147890000000     0.358280000000     0.457700000000     0.0762312  
C323     C      0.146770000000     0.309330000000     0.464060000000     0.0758187  
C324     C      0.144350000000     0.310080000000     0.511410000000    -0.0884995  
C325     C      0.191950000000     0.400300000000     0.669650000000     0.0421835  
C326     C      0.198710000000     0.369720000000     0.151970000000     0.091048   
C327     C      0.185730000000     0.315980000000     0.157270000000     0.0766781  
C328     C      0.199790000000     0.368160000000     0.104430000000    -0.0906969  
C329     C      0.165440000000     0.311420000000     0.011460000000    -0.0885037  
C330     C      0.186480000000     0.313830000000     0.109980000000    -0.0883469  
C331     C      0.190900000000     0.337340000000     0.032600000000     0.0363154  
C332     C      0.192860000000     0.339870000000     0.082970000000     0.0380962  
C333     C      0.162050000000     0.311020000000     0.964190000000     0.0763031  
C334     C      0.209270000000     0.360480000000     0.958150000000     0.0771614  
C335     C      0.213300000000     0.361710000000     0.005280000000    -0.0888107  
C336     C      0.207500000000     0.400330000000     0.171210000000     0.0424452  
C337     C      0.069640000000     0.264430000000     0.245270000000     0.0903256  
C338     C      0.063470000000     0.306860000000     0.272420000000     0.0757094  
C339     C      0.038650000000     0.249280000000     0.228630000000    -0.0903058  
C340     C      0.968620000000     0.212700000000     0.215330000000    -0.088465   
C341     C      0.032160000000     0.291710000000     0.257350000000    -0.0876606  
C342     C      0.985830000000     0.245810000000     0.218240000000     0.0376092  
C343     C      0.019230000000     0.262500000000     0.235040000000     0.0360637  
C344     C      0.937810000000     0.197350000000     0.198520000000     0.0777469  
C345     C      0.939460000000     0.246320000000     0.189360000000     0.0766255  
C346     C      0.970760000000     0.262560000000     0.204660000000    -0.088133   
C347     C      0.088400000000     0.249850000000     0.234350000000     0.0393037  
C348     C      0.278180000000     0.369810000000     0.341300000000     0.0913747  
C349     C      0.270560000000     0.411890000000     0.365740000000     0.0766563  
C350     C      0.308810000000     0.385350000000     0.359420000000    -0.0905121  
C351     C      0.365700000000     0.412210000000     0.420220000000    -0.0881939  
C352     C      0.300660000000     0.427400000000     0.385180000000    -0.08819    
C353     C      0.352400000000     0.429980000000     0.403770000000     0.036095   
C354     C      0.320230000000     0.414080000000     0.382670000000     0.0381452  
C355     C      0.396350000000     0.427340000000     0.437760000000     0.076753   
C356     C      0.400640000000     0.477340000000     0.426370000000     0.0769335  
C357     C      0.370360000000     0.463020000000     0.407390000000    -0.0874698  
C358     C      0.269060000000     0.341090000000     0.315890000000     0.0403199  
C359     C      0.522060000000     0.978760000000     0.830360000000     0.0887461  
C360     C      0.525860000000     0.029190000000     0.827610000000     0.0752875  
C361     C      0.524060000000     0.978650000000     0.782720000000    -0.0918461  
C362     C      0.545840000000     0.028530000000     0.680400000000    -0.0889074  
C363     C      0.528320000000     0.029750000000     0.780270000000    -0.0890202  
C364     C      0.525100000000     0.002510000000     0.706840000000     0.0362457  
C365     C      0.526520000000     0.003930000000     0.757260000000     0.0380436  
C366     C      0.542250000000     0.027510000000     0.633100000000     0.0762067  
C367     C      0.498400000000     0.975500000000     0.637630000000     0.0764785  
C368     C      0.501610000000     0.975560000000     0.684850000000    -0.0890822  
C369     C      0.519670000000     0.951480000000     0.853550000000     0.0415548  
C370     C      0.502100000000     0.033630000000     0.325440000000     0.0895385  
C371     C      0.461790000000     0.979840000000     0.332030000000     0.0740275  
C372     C      0.498630000000     0.031740000000     0.277990000000    -0.0912917  
C373     C      0.478050000000     0.024870000000     0.179120000000    -0.0888406  
C374     C      0.458000000000     0.977400000000     0.284820000000    -0.0899828  
C375     C      0.475750000000     0.000410000000     0.206720000000     0.035911   
C376     C      0.477020000000     0.003300000000     0.257150000000     0.0376433  
C377     C      0.480460000000     0.023280000000     0.131910000000     0.0769663  
C378     C      0.477020000000     0.973280000000     0.138430000000     0.0759661  
C379     C      0.474460000000     0.974060000000     0.185710000000    -0.0892771  
C380     C      0.524190000000     0.064420000000     0.343870000000     0.0405599  
C381     C      0.610150000000     0.077370000000     0.014350000000     0.0902375  
C382     C      0.601640000000     0.027880000000     0.041520000000     0.0754357  
C383     C      0.640790000000     0.092320000000     0.032450000000    -0.0909902  
C384     C      0.697290000000     0.121400000000     0.094920000000    -0.0887685  
C385     C      0.631890000000     0.042320000000     0.060320000000    -0.0889383  
C386     C      0.684150000000     0.090910000000     0.076570000000     0.0356553  
C387     C      0.651850000000     0.074970000000     0.056350000000     0.0376682  
C388     C      0.728060000000     0.136570000000     0.112030000000     0.0760004  
C389     C      0.732880000000     0.091700000000     0.095310000000     0.0762846  
C390     C      0.702340000000     0.076010000000     0.077320000000    -0.0882065  
C391     C      0.601500000000     0.097070000000     0.988200000000     0.0405756  
C392     C      0.170020000000     0.862540000000     0.463450000000     0.0899889  
C393     C      0.209110000000     0.847410000000     0.455950000000     0.0744122  
C394     C      0.173550000000     0.863610000000     0.510870000000    -0.0907745  
C395     C      0.195820000000     0.877650000000     0.608780000000    -0.0890498  
C396     C      0.212870000000     0.848140000000     0.503150000000    -0.0895658  
C397     C      0.196350000000     0.854410000000     0.581610000000     0.0355996  
C398     C      0.194590000000     0.855740000000     0.531220000000     0.0376032  
C399     C      0.193720000000     0.874220000000     0.656020000000     0.0763524  
C400     C      0.194230000000     0.826060000000     0.650510000000     0.0751511  
C401     C      0.196430000000     0.828820000000     0.603060000000    -0.0884729  
C402     C      0.148690000000     0.872430000000     0.445520000000     0.0415529  
C403     C      0.140760000000     0.836500000000     0.961500000000     0.0893175  
C404     C      0.151440000000     0.794140000000     0.957020000000     0.0739675  
C405     C      0.138500000000     0.833410000000     0.009030000000    -0.0908056  
C406     C      0.123570000000     0.813810000000     0.108580000000    -0.0890744  
C407     C      0.149390000000     0.790710000000     0.004250000000    -0.0898886  
C408     C      0.145100000000     0.810180000000     0.081410000000     0.0353564  
C409     C      0.143680000000     0.810980000000     0.030920000000     0.0371646  
C410     C      0.127340000000     0.816110000000     0.155880000000     0.0753146  
C411     C      0.172600000000     0.810350000000     0.150080000000     0.0756179  
C412     C      0.169410000000     0.807770000000     0.102830000000    -0.0889453  
C413     C      0.134020000000     0.859700000000     0.941870000000     0.0417537  
C414     C      0.393390000000     0.969960000000     0.947160000000     0.0907993  
C415     C      0.401400000000     0.927880000000     0.924090000000     0.0756417  
C416     C      0.362900000000     0.954210000000     0.928440000000    -0.090847   
C417     C      0.305620000000     0.925830000000     0.867770000000    -0.0878294  
C418     C      0.371600000000     0.912260000000     0.903930000000    -0.0889745  
C419     C      0.319670000000     0.908790000000     0.884410000000     0.0355147  
C420     C      0.351790000000     0.925310000000     0.905690000000     0.0375867  
C421     C      0.275110000000     0.909930000000     0.849670000000     0.0766073  
C422     C      0.272510000000     0.860670000000     0.860990000000     0.0759631  
C423     C      0.302540000000     0.875720000000     0.880640000000    -0.0885267  
C424     C      0.402310000000     0.998910000000     0.971830000000     0.0389235  
C425     C      0.815820000000     0.629550000000     0.810860000000     0.0904839  
C426     C      0.806190000000     0.672470000000     0.803690000000     0.0762034  
C427     C      0.813790000000     0.630760000000     0.858320000000    -0.0910931  
C428     C      0.798850000000     0.629490000000     0.957790000000    -0.0709874  
C429     C      0.803400000000     0.673620000000     0.850890000000    -0.089252   
C430     C      0.808390000000     0.656040000000     0.929710000000     0.0292709  
C431     C      0.807960000000     0.653140000000     0.879040000000     0.0405667  
C432     C      0.802910000000     0.633090000000     0.004960000000     0.0487709  
C433     C      0.824020000000     0.688510000000     0.997830000000     0.0751858  
C434     C      0.821050000000     0.685810000000     0.950510000000    -0.0839063  
C435     C      0.822260000000     0.605600000000     0.793370000000     0.0459621  
C436     C      0.860570000000     0.646700000000     0.500300000000     0.0895763  
C437     C      0.857470000000     0.693750000000     0.499910000000     0.07415    
C438     C      0.862270000000     0.647430000000     0.452700000000    -0.0920915  
C439     C      0.877530000000     0.696070000000     0.351070000000    -0.0896919  
C440     C      0.859640000000     0.695210000000     0.452470000000    -0.0896264  
C441     C      0.858510000000     0.669720000000     0.378130000000     0.0354595  
C442     C      0.860930000000     0.671260000000     0.428400000000     0.0372204  
C443     C      0.873380000000     0.694220000000     0.303820000000     0.0748749  
C444     C      0.832030000000     0.640980000000     0.309930000000     0.0762073  
C445     C      0.835960000000     0.641830000000     0.357010000000    -0.0899829  
C446     C      0.863430000000     0.621720000000     0.522390000000     0.0425386  
C447     C      0.725980000000     0.582390000000     0.615810000000     0.0896582  
C448     C      0.734210000000     0.632560000000     0.592720000000     0.0755097  
C449     C      0.695230000000     0.567900000000     0.597810000000    -0.0902649  
C450     C      0.637080000000     0.540530000000     0.537770000000    -0.0885239  
C451     C      0.704080000000     0.618670000000     0.573800000000    -0.0895659  
C452     C      0.651420000000     0.570960000000     0.556660000000     0.0352829  
C453     C      0.683980000000     0.585970000000     0.576200000000     0.0373821  
C454     C      0.606400000000     0.526750000000     0.520360000000     0.0754961  
C455     C      0.603940000000     0.572800000000     0.537980000000     0.0757725  
C456     C      0.634290000000     0.587010000000     0.556550000000    -0.088088   
C457     C      0.735030000000     0.562010000000     0.639210000000     0.0423208  
C458     C      0.934320000000     0.734920000000     0.715960000000     0.0910437  
C459     C      0.940920000000     0.693170000000     0.686890000000     0.0767189  
C460     C      0.965740000000     0.750680000000     0.730910000000    -0.0912237  
C461     C      0.036250000000     0.788230000000     0.740030000000    -0.0876402  
C462     C      0.972540000000     0.708840000000     0.700450000000    -0.0885819  
C463     C      0.019090000000     0.755090000000     0.738190000000     0.0342263  
C464     C      0.985440000000     0.738010000000     0.722830000000     0.0397049  
C465     C      0.067390000000     0.803880000000     0.755650000000     0.0767016  
C466     C      0.065870000000     0.755030000000     0.765900000000     0.0760664  
C467     C      0.034390000000     0.738560000000     0.751630000000    -0.0877653  
C468     C      0.915370000000     0.748990000000     0.728490000000     0.0401345  
H1       H      0.671440000000     0.930820000000     0.784070000000     0.0247367  
H2       H      0.830150000000     0.084650000000     0.710840000000     0.023177   
H3       H      0.781990000000     0.979850000000     0.732140000000     0.0502031  
H4       H      0.805180000000     0.032510000000     0.742810000000     0.0510357  
H5       H      0.697130000000     0.984550000000     0.756560000000     0.0525155  
H6       H      0.714910000000     0.016330000000     0.694650000000     0.0563766  
H7       H      0.756270000000     0.927250000000     0.763410000000     0.0232187  
H8       H      0.922640000000     0.265390000000     0.616190000000     0.0237172  
H9       H      0.914050000000     0.415350000000     0.532090000000     0.0237174  
H10      H      0.858720000000     0.311370000000     0.562210000000     0.0506491  
H11      H      0.887830000000     0.364340000000     0.567620000000     0.0513316  
H12      H      0.949370000000     0.318050000000     0.584590000000     0.0523401  
H13      H      0.961380000000     0.347110000000     0.520050000000     0.0558866  
H14      H      0.833250000000     0.260040000000     0.597530000000     0.0237062  
H15      H      0.160740000000     0.736900000000     0.331120000000     0.0239424  
H16      H      0.001170000000     0.587260000000     0.406990000000     0.0244621  
H17      H      0.052190000000     0.693700000000     0.389470000000     0.0516624  
H18      H      0.027210000000     0.639470000000     0.374630000000     0.0514189  
H19      H      0.133270000000     0.683470000000     0.360250000000     0.0523433  
H20      H      0.115930000000     0.655670000000     0.428920000000     0.0560921  
H21      H      0.079800000000     0.746450000000     0.358050000000     0.0249905  
H22      H      0.579330000000     0.740060000000     0.840850000000     0.0248406  
H23      H      0.586400000000     0.588920000000     0.917990000000     0.0251825  
H24      H      0.643140000000     0.695240000000     0.899900000000     0.0516277  
H25      H      0.613420000000     0.641180000000     0.885890000000     0.0518618  
H26      H      0.552590000000     0.686750000000     0.870340000000     0.0530885  
H27      H      0.541150000000     0.658480000000     0.938270000000     0.057468   
H28      H      0.669050000000     0.747870000000     0.867960000000     0.0238856  
H29      H      0.177860000000     0.931740000000     0.282780000000     0.0269336  
H30      H      0.334540000000     0.083100000000     0.203770000000     0.0249361  
H31      H      0.285670000000     0.976170000000     0.221030000000     0.0518512  
H32      H      0.310120000000     0.030660000000     0.235320000000     0.0524563  
H33      H      0.204270000000     0.985060000000     0.253680000000     0.0534994  
H34      H      0.219860000000     0.012520000000     0.184810000000     0.0570488  
H35      H      0.259000000000     0.923260000000     0.252550000000     0.024176   
H36      H      0.423330000000     0.266040000000     0.120790000000     0.0238406  
H37      H      0.416830000000     0.416970000000     0.041720000000     0.0270549  
H38      H      0.359930000000     0.310450000000     0.058770000000     0.0526308  
H39      H      0.389480000000     0.364660000000     0.073570000000     0.0530602  
H40      H      0.450230000000     0.319460000000     0.091860000000     0.0518551  
H41      H      0.462310000000     0.347470000000     0.023390000000     0.0558522  
H42      H      0.333780000000     0.257590000000     0.090100000000     0.0254024  
H43      H      0.710320000000     0.820370000000     0.681600000000     0.0232389  
H44      H      0.712460000000     0.854490000000     0.452700000000     0.0248286  
H45      H      0.617710000000     0.804630000000     0.593020000000     0.0537581  
H46      H      0.712720000000     0.850440000000     0.534330000000     0.0517248  
H47      H      0.710880000000     0.815660000000     0.599250000000     0.0510383  
H48      H      0.618920000000     0.770080000000     0.530640000000     0.0568745  
H49      H      0.617840000000     0.809510000000     0.675080000000     0.0249776  
H50      H      0.629090000000     0.857000000000     0.943640000000     0.0251202  
H51      H      0.712070000000     0.889130000000     0.184080000000     0.0250063  
H52      H      0.716070000000     0.863590000000     0.037180000000     0.0518843  
H53      H      0.716640000000     0.895720000000     0.102440000000     0.0518163  
H54      H      0.626970000000     0.861400000000     0.025490000000     0.0526795  
H55      H      0.618400000000     0.825960000000     0.088050000000     0.0577755  
H56      H      0.717780000000     0.859720000000     0.954990000000     0.0239163  
H57      H      0.741750000000     0.664740000000     0.208720000000     0.0246278  
H58      H      0.749530000000     0.820970000000     0.296140000000     0.0241165  
H59      H      0.793390000000     0.780970000000     0.202370000000     0.0508024  
H60      H      0.776420000000     0.794330000000     0.268970000000     0.0508975  
H61      H      0.713960000000     0.690190000000     0.238500000000     0.0526974  
H62      H      0.688250000000     0.717920000000     0.219660000000     0.0568023  
H63      H      0.821100000000     0.754810000000     0.175050000000     0.0234763  
H64      H      0.577320000000     0.846270000000     0.338820000000     0.0285489  
H65      H      0.587180000000     0.004540000000     0.420180000000     0.0263344  
H66      H      0.643830000000     0.953640000000     0.400600000000     0.0521689  
H67      H      0.614340000000     0.979420000000     0.387400000000     0.0522736  
H68      H      0.552120000000     0.874060000000     0.369060000000     0.0537225  
H69      H      0.542480000000     0.889780000000     0.439920000000     0.0570375  
H70      H      0.668400000000     0.925550000000     0.368110000000     0.0246193  
H71      H      0.045010000000     0.523220000000     0.613190000000     0.0270526  
H72      H      0.038240000000     0.557190000000     0.839180000000     0.0245811  
H73      H      0.952380000000     0.522460000000     0.681660000000     0.0539776  
H74      H      0.041600000000     0.562100000000     0.757490000000     0.0520883  
H75      H      0.042490000000     0.527080000000     0.695240000000     0.0533049  
H76      H      0.945600000000     0.486290000000     0.746030000000     0.0575792  
H77      H      0.955510000000     0.518620000000     0.599700000000     0.0250418  
H78      H      0.041850000000     0.486360000000     0.339780000000     0.0273302  
H79      H      0.955100000000     0.448430000000     0.102410000000     0.0271179  
H80      H      0.951450000000     0.473460000000     0.248220000000     0.0523785  
H81      H      0.953200000000     0.441630000000     0.183740000000     0.0517082  
H82      H      0.044190000000     0.483570000000     0.257410000000     0.0541603  
H83      H      0.048390000000     0.519140000000     0.194580000000     0.056682   
H84      H      0.949720000000     0.476120000000     0.330330000000     0.0239098  
H85      H      0.906020000000     0.506720000000     0.011240000000     0.0264089  
H86      H      0.919800000000     0.653740000000     0.141540000000     0.0198014  
H87      H      0.967510000000     0.621570000000     0.038760000000     0.0520799  
H88      H      0.945770000000     0.627870000000     0.106300000000     0.0520689  
H89      H      0.879420000000     0.533070000000     0.042450000000     0.0527086  
H90      H      0.861410000000     0.569490000000     0.028300000000     0.0559102  
H91      H      0.993580000000     0.594280000000     0.009310000000     0.0253898  
H92      H      0.285080000000     0.140610000000     0.003020000000     0.0275048  
H93      H      0.379470000000     0.191500000000     0.781240000000     0.0251229  
H94      H      0.381690000000     0.154040000000     0.928980000000     0.0525901  
H95      H      0.380540000000     0.187870000000     0.863000000000     0.0525259  
H96      H      0.286020000000     0.136180000000     0.921050000000     0.054251   
H97      H      0.290770000000     0.102090000000     0.860060000000     0.0576693  
H98      H      0.379990000000     0.158100000000     0.011450000000     0.0247113  
H99      H      0.289760000000     0.184750000000     0.272140000000     0.0263621  
H100     H      0.373200000000     0.222530000000     0.512430000000     0.0242585  
H101     H      0.377630000000     0.195350000000     0.367650000000     0.0518559  
H102     H      0.376730000000     0.228220000000     0.430800000000     0.0510979  
H103     H      0.286630000000     0.188820000000     0.354070000000     0.0536505  
H104     H      0.279820000000     0.154520000000     0.418580000000     0.0579673  
H105     H      0.380240000000     0.191590000000     0.285720000000     0.0239209  
H106     H      0.411730000000     0.002710000000     0.534440000000     0.0249165  
H107     H      0.416800000000     0.157130000000     0.625040000000     0.0240827  
H108     H      0.464140000000     0.119060000000     0.533360000000     0.0511769  
H109     H      0.444930000000     0.131650000000     0.598050000000     0.051145   
H110     H      0.383460000000     0.027710000000     0.563580000000     0.0528352  
H111     H      0.358290000000     0.055470000000     0.544190000000     0.0567117  
H112     H      0.492380000000     0.093180000000     0.506760000000     0.0256968  
H113     H      0.075480000000     0.342610000000     0.837010000000     0.0238782  
H114     H      0.080070000000     0.501570000000     0.909200000000     0.0245936  
H115     H      0.136860000000     0.453490000000     0.887510000000     0.0521568  
H116     H      0.107290000000     0.476610000000     0.877390000000     0.0517756  
H117     H      0.047420000000     0.368380000000     0.864110000000     0.0521116  
H118     H      0.033240000000     0.386340000000     0.925440000000     0.0557822  
H119     H      0.163780000000     0.427650000000     0.856630000000     0.0261322  
H120     H      0.328140000000     0.259910000000     0.674420000000     0.0239644  
H121     H      0.169780000000     0.255480000000     0.749170000000     0.0230971  
H122     H      0.218070000000     0.199160000000     0.728460000000     0.0518291  
H123     H      0.194760000000     0.228270000000     0.717640000000     0.0513738  
H124     H      0.302880000000     0.288350000000     0.702200000000     0.0523627  
H125     H      0.285280000000     0.303450000000     0.762990000000     0.0561827  
H126     H      0.243260000000     0.171930000000     0.696820000000     0.0273267  
H127     H      0.442340000000     0.486980000000     0.850150000000     0.0268262  
H128     H      0.488690000000     0.446770000000     0.612190000000     0.0243478  
H129     H      0.519530000000     0.474640000000     0.757020000000     0.0527427  
H130     H      0.485410000000     0.441260000000     0.693900000000     0.0519063  
H131     H      0.435730000000     0.482590000000     0.768030000000     0.0541475  
H132     H      0.464820000000     0.516940000000     0.703530000000     0.0575099  
H133     H      0.525370000000     0.478840000000     0.838960000000     0.0267198  
H134     H      0.524930000000     0.561920000000     0.350250000000     0.0264309  
H135     H      0.555440000000     0.509420000000     0.110730000000     0.0256664  
H136     H      0.527690000000     0.479150000000     0.257490000000     0.0519721  
H137     H      0.561870000000     0.511700000000     0.192450000000     0.0518812  
H138     H      0.528890000000     0.567780000000     0.268170000000     0.0549812  
H139     H      0.491420000000     0.539370000000     0.205890000000     0.0583634  
H140     H      0.523880000000     0.473980000000     0.339750000000     0.0237707  
H141     H      0.892190000000     0.191830000000     0.778980000000     0.0237282  
H142     H      0.841050000000     0.222410000000     0.019410000000     0.0254819  
H143     H      0.810500000000     0.195930000000     0.872590000000     0.0526925  
H144     H      0.842880000000     0.228990000000     0.937820000000     0.0527244  
H145     H      0.898260000000     0.195460000000     0.860920000000     0.0521968  
H146     H      0.870430000000     0.158520000000     0.922970000000     0.056363   
H147     H      0.805200000000     0.192600000000     0.790290000000     0.0251006  
H148     H      0.774940000000     0.154520000000     0.516720000000     0.0258197  
H149     H      0.808250000000     0.189780000000     0.288450000000     0.0248822  
H150     H      0.851840000000     0.138700000000     0.428410000000     0.0530508  
H151     H      0.804200000000     0.185770000000     0.370140000000     0.0521774  
H152     H      0.769890000000     0.150050000000     0.434410000000     0.052173   
H153     H      0.814950000000     0.103760000000     0.365940000000     0.0562675  
H154     H      0.856470000000     0.143460000000     0.510600000000     0.0241647  
H155     H      0.149340000000     0.377670000000     0.437850000000     0.0256446  
H156     H      0.114270000000     0.294750000000     0.677070000000     0.0238327  
H157     H      0.143600000000     0.291130000000     0.531520000000     0.0525108  
H158     H      0.109040000000     0.290800000000     0.595340000000     0.0514008  
H159     H      0.145370000000     0.380000000000     0.519770000000     0.0534723  
H160     H      0.182180000000     0.387920000000     0.582800000000     0.0575369  
H161     H      0.147460000000     0.289350000000     0.449250000000     0.0255607  
H162     H      0.141530000000     0.290930000000     0.949300000000     0.0245353  
H163     H      0.179770000000     0.294750000000     0.176450000000     0.0315447  
H164     H      0.233610000000     0.381900000000     0.020270000000     0.054136   
H165     H      0.181600000000     0.291670000000     0.094630000000     0.0541614  
H166     H      0.147510000000     0.292130000000     0.031410000000     0.0535474  
H167     H      0.205190000000     0.388820000000     0.084130000000     0.057773   
H168     H      0.226910000000     0.380190000000     0.938420000000     0.0276457  
H169     H      0.925570000000     0.171750000000     0.197060000000     0.0273952  
H170     H      0.072270000000     0.329330000000     0.289730000000     0.024834   
H171     H      0.983010000000     0.288120000000     0.205200000000     0.0528213  
H172     H      0.018170000000     0.302850000000     0.263920000000     0.0517966  
H173     H      0.978530000000     0.198370000000     0.226560000000     0.0535127  
H174     H      0.030110000000     0.227490000000     0.209620000000     0.0558949  
H175     H      0.928720000000     0.260210000000     0.179400000000     0.0246177  
H176     H      0.405730000000     0.412590000000     0.449460000000     0.023937   
H177     H      0.256180000000     0.422950000000     0.369570000000     0.0254449  
H178     H      0.361580000000     0.477990000000     0.394710000000     0.0529179  
H179     H      0.308060000000     0.449370000000     0.403060000000     0.0528929  
H180     H      0.352610000000     0.386640000000     0.419800000000     0.0525017  
H181     H      0.323820000000     0.375100000000     0.354610000000     0.0564044  
H182     H      0.413760000000     0.502940000000     0.427900000000     0.0264547  
H183     H      0.558480000000     0.048360000000     0.613940000000     0.0249084  
H184     H      0.526540000000     0.049560000000     0.843470000000     0.0281942  
H185     H      0.484990000000     0.955010000000     0.704160000000     0.0537732  
H186     H      0.530260000000     0.049820000000     0.761710000000     0.0532292  
H187     H      0.564510000000     0.049690000000     0.696200000000     0.0529963  
H188     H      0.523360000000     0.958690000000     0.765380000000     0.0569205  
H189     H      0.479380000000     0.954400000000     0.622140000000     0.0269418  
H190     H      0.482900000000     0.043060000000     0.111960000000     0.0271676  
H191     H      0.446950000000     0.958710000000     0.351680000000     0.0254167  
H192     H      0.472850000000     0.954690000000     0.205760000000     0.0523474  
H193     H      0.440530000000     0.955100000000     0.270060000000     0.0516965  
H194     H      0.478530000000     0.045410000000     0.193930000000     0.0527273  
H195     H      0.513490000000     0.052300000000     0.257260000000     0.0566157  
H196     H      0.476830000000     0.952820000000     0.123750000000     0.0247015  
H197     H      0.737330000000     0.160270000000     0.125390000000     0.0239166  
H198     H      0.587040000000     0.002590000000     0.046510000000     0.0258303  
H199     H      0.693440000000     0.052620000000     0.063120000000     0.0524527  
H200     H      0.639220000000     0.027860000000     0.078780000000     0.0523288  
H201     H      0.683920000000     0.133610000000     0.096210000000     0.0522586  
H202     H      0.656180000000     0.117490000000     0.027150000000     0.056107   
H203     H      0.746220000000     0.079410000000     0.094560000000     0.0264822  
H204     H      0.192620000000     0.892480000000     0.675550000000     0.0262289  
H205     H      0.223400000000     0.840620000000     0.435910000000     0.0244394  
H206     H      0.196780000000     0.810280000000     0.583270000000     0.0520303  
H207     H      0.229840000000     0.842440000000     0.517570000000     0.0516563  
H208     H      0.196400000000     0.898160000000     0.593610000000     0.054286   
H209     H      0.159260000000     0.869880000000     0.531970000000     0.0573795  
H210     H      0.193300000000     0.805370000000     0.665680000000     0.0240222  
H211     H      0.110510000000     0.819530000000     0.175560000000     0.0240917  
H212     H      0.156790000000     0.778270000000     0.938260000000     0.0242501  
H213     H      0.186720000000     0.805160000000     0.083110000000     0.0518962  
H214     H      0.152870000000     0.772570000000     0.019850000000     0.0512866  
H215     H      0.104150000000     0.815310000000     0.093390000000     0.0520146  
H216     H      0.133680000000     0.849220000000     0.029000000000     0.0568862  
H217     H      0.192270000000     0.809140000000     0.165040000000     0.0241193  
H218     H      0.265080000000     0.924060000000     0.837800000000     0.025856   
H219     H      0.415880000000     0.916880000000     0.920920000000     0.0255801  
H220     H      0.311760000000     0.861200000000     0.893650000000     0.0507808  
H221     H      0.364630000000     0.890330000000     0.886200000000     0.0515788  
H222     H      0.318020000000     0.951400000000     0.868400000000     0.0530633  
H223     H      0.347780000000     0.964390000000     0.932450000000     0.0565614  
H224     H      0.260120000000     0.835070000000     0.859310000000     0.0232207  
H225     H      0.801590000000     0.612950000000     0.024180000000     0.0891772  
H226     H      0.803020000000     0.689360000000     0.783720000000     0.0267868  
H227     H      0.829650000000     0.707130000000     0.930440000000     0.0513756  
H228     H      0.798020000000     0.690840000000     0.865130000000     0.0520814  
H229     H      0.789710000000     0.606100000000     0.943520000000     0.0515182  
H230     H      0.817980000000     0.614810000000     0.878980000000     0.0576555  
H231     H      0.833940000000     0.711870000000     0.012780000000     0.0218979  
H232     H      0.888300000000     0.715240000000     0.284020000000     0.0234427  
H233     H      0.855250000000     0.712290000000     0.516790000000     0.0252143  
H234     H      0.820700000000     0.621010000000     0.376910000000     0.0534919  
H235     H      0.858760000000     0.714190000000     0.434670000000     0.0522237  
H236     H      0.895370000000     0.717980000000     0.366330000000     0.0518384  
H237     H      0.864310000000     0.629200000000     0.434450000000     0.0565401  
H238     H      0.813810000000     0.619060000000     0.295120000000     0.0242782  
H239     H      0.596220000000     0.503100000000     0.506390000000     0.0236015  
H240     H      0.748690000000     0.658000000000     0.589220000000     0.024486   
H241     H      0.643880000000     0.610270000000     0.571480000000     0.0518578  
H242     H      0.696930000000     0.633720000000     0.556660000000     0.0516604  
H243     H      0.649480000000     0.527370000000     0.535990000000     0.0518612  
H244     H      0.679940000000     0.542590000000     0.601570000000     0.0559528  
H245     H      0.591600000000     0.586070000000     0.539040000000     0.0259115  
H246     H      0.079650000000     0.829500000000     0.756430000000     0.02595    
H247     H      0.932210000000     0.670790000000     0.669340000000     0.0274181  
H248     H      0.022140000000     0.712990000000     0.751850000000     0.0515249  
H249     H      0.986790000000     0.698170000000     0.692670000000     0.0532255  
H250     H      0.025980000000     0.802280000000     0.728980000000     0.0523664  
H251     H      0.974460000000     0.772510000000     0.749890000000     0.0570237  
H252     H      0.076700000000     0.741250000000     0.775930000000     0.0239225  
N1       N      0.787330000000     0.081860000000     0.686540000000    -0.206435   
N2       N      0.711870000000     0.925010000000     0.775660000000    -0.207082   
N3       N      0.716550000000     0.080380000000     0.635210000000    -0.102489   
N4       N      0.953850000000     0.412090000000     0.508020000000    -0.206471   
N5       N      0.875990000000     0.258730000000     0.608960000000    -0.207279   
N6       N      0.022220000000     0.409390000000     0.455830000000    -0.102767   
N7       N      0.043220000000     0.590130000000     0.435050000000    -0.205714   
N8       N      0.122470000000     0.745780000000     0.342770000000    -0.206983   
N9       N      0.112680000000     0.592830000000     0.493530000000    -0.102545   
N10      N      0.547280000000     0.592320000000     0.944980000000    -0.205437   
N11      N      0.626170000000     0.748060000000     0.852510000000    -0.206761   
N12      N      0.480420000000     0.595800000000     0.001640000000    -0.0953803  
N13      N      0.291570000000     0.079260000000     0.177790000000    -0.205648   
N14      N      0.216280000000     0.923360000000     0.269350000000    -0.206519   
N15      N      0.220390000000     0.074940000000     0.122590000000    -0.102334   
N16      N      0.456250000000     0.413630000000     0.015750000000    -0.205572   
N17      N      0.376570000000     0.257690000000     0.107190000000    -0.206817   
N18      N      0.523780000000     0.410240000000     0.961160000000    -0.1033     
N19      N      0.665230000000     0.815420000000     0.443300000000    -0.204927   
N20      N      0.664310000000     0.815880000000     0.684410000000    -0.206848   
N21      N      0.585070000000     0.745280000000     0.421020000000    -0.101222   
N22      N      0.662910000000     0.853220000000     0.184010000000    -0.205208   
N23      N      0.673220000000     0.857270000000     0.943260000000    -0.206568   
N24      N      0.575920000000     0.795760000000     0.190910000000    -0.0995816  
N25      N      0.703120000000     0.785130000000     0.274840000000    -0.20536    
N26      N      0.783600000000     0.707850000000     0.190070000000    -0.207404   
N27      N      0.620890000000     0.725550000000     0.238350000000    -0.0987077  
N28      N      0.548250000000     0.961860000000     0.447060000000    -0.20573    
N29      N      0.624720000000     0.883630000000     0.351790000000    -0.206374   
N30      N      0.482440000000     0.891510000000     0.505290000000    -0.103184   
N31      N      0.990400000000     0.518200000000     0.840820000000    -0.2054     
N32      N      0.000210000000     0.520030000000     0.600400000000    -0.207497   
N33      N      0.905380000000     0.455140000000     0.850670000000    -0.101547   
N34      N      0.002420000000     0.488300000000     0.100490000000    -0.205365   
N35      N      0.995910000000     0.482110000000     0.341130000000    -0.206537   
N36      N      0.086550000000     0.553630000000     0.090120000000    -0.103134   
N37      N      0.875570000000     0.625300000000     0.107920000000    -0.208897   
N38      N      0.951880000000     0.548400000000     0.008550000000    -0.20574    
N39      N      0.801130000000     0.593980000000     0.041310000000    -0.140299   
N40      N      0.334050000000     0.149620000000     0.772350000000    -0.204893   
N41      N      0.332620000000     0.150180000000     0.013300000000    -0.206257   
N42      N      0.257850000000     0.074360000000     0.750740000000    -0.101559   
N43      N      0.324860000000     0.184610000000     0.513640000000    -0.205023   
N44      N      0.334950000000     0.187270000000     0.272850000000    -0.206486   
N45      N      0.239030000000     0.123450000000     0.522580000000    -0.0994962  
N46      N      0.371040000000     0.121100000000     0.601850000000    -0.205376   
N47      N      0.454230000000     0.046050000000     0.518690000000    -0.206675   
N48      N      0.290060000000     0.061980000000     0.560340000000    -0.0986985  
N49      N      0.040060000000     0.458780000000     0.933510000000    -0.205081   
N50      N      0.121690000000     0.383120000000     0.844980000000    -0.206339   
N51      N      0.970720000000     0.387950000000     0.984500000000    -0.101648   
N52      N      0.212650000000     0.296030000000     0.772110000000    -0.206054   
N53      N      0.287620000000     0.213850000000     0.683510000000    -0.206508   
N54      N      0.283630000000     0.366550000000     0.820430000000    -0.101111   
N55      N      0.479730000000     0.485660000000     0.609760000000    -0.205456   
N56      N      0.484660000000     0.483850000000     0.850620000000    -0.206225   
N57      N      0.457300000000     0.548380000000     0.598320000000    -0.101756   
N58      N      0.519100000000     0.522110000000     0.110350000000    -0.205248   
N59      N      0.523370000000     0.517160000000     0.351080000000    -0.206595   
N60      N      0.460870000000     0.550630000000     0.102300000000    -0.0954279  
N61      N      0.853790000000     0.186080000000     0.019160000000    -0.205398   
N62      N      0.847860000000     0.191190000000     0.778560000000    -0.206894   
N63      N      0.882300000000     0.127780000000     0.025830000000    -0.102459   
N64      N      0.814890000000     0.149760000000     0.278810000000    -0.205308   
N65      N      0.816430000000     0.149930000000     0.519710000000    -0.206745   
N66      N      0.823100000000     0.078510000000     0.256230000000    -0.104351   
N67      N      0.151860000000     0.343260000000     0.678080000000    -0.205872   
N68      N      0.149400000000     0.333680000000     0.437500000000    -0.206847   
N69      N      0.212520000000     0.429220000000     0.686800000000    -0.101329   
N70      N      0.190440000000     0.343180000000     0.178380000000    -0.205049   
N71      N      0.183370000000     0.335750000000     0.937840000000    -0.206775   
N72      N      0.215820000000     0.429070000000     0.189030000000    -0.101157   
N73      N      0.081990000000     0.293220000000     0.267400000000    -0.20632    
N74      N      0.923190000000     0.213970000000     0.186070000000    -0.206853   
N75      N      0.105930000000     0.236230000000     0.223890000000    -0.103437   
N76      N      0.258830000000     0.382860000000     0.345290000000    -0.206195   
N77      N      0.413790000000     0.459670000000     0.440530000000    -0.206808   
N78      N      0.260630000000     0.314250000000     0.292030000000    -0.101172   
N79      N      0.521720000000     0.003600000000     0.852820000000    -0.204762   
N80      N      0.518160000000     0.001510000000     0.612000000000    -0.206534   
N81      N      0.517440000000     0.925830000000     0.874970000000    -0.10487    
N82      N      0.484470000000     0.007230000000     0.352460000000    -0.20551    
N83      N      0.480910000000     0.998110000000     0.111820000000    -0.206646   
N84      N      0.544870000000     0.093340000000     0.360900000000    -0.104226   
N85      N      0.590290000000     0.045120000000     0.019660000000    -0.205957   
N86      N      0.745870000000     0.121980000000     0.111790000000    -0.207001   
N87      N      0.593570000000     0.115620000000     0.963670000000    -0.102976   
N88      N      0.187080000000     0.853350000000     0.435960000000    -0.20565    
N89      N      0.191880000000     0.848100000000     0.676680000000    -0.206817   
N90      N      0.128720000000     0.881770000000     0.428950000000    -0.102809   
N91      N      0.148530000000     0.817630000000     0.935540000000    -0.20553    
N92      N      0.152190000000     0.815260000000     0.176370000000    -0.207013   
N93      N      0.127620000000     0.881440000000     0.923720000000    -0.102566   
N94      N      0.412770000000     0.956900000000     0.944410000000    -0.206564   
N95      N      0.258630000000     0.877580000000     0.846470000000    -0.20731    
N96      N      0.410570000000     0.025970000000     0.995000000000    -0.101499   
N97      N      0.813090000000     0.651220000000     0.783430000000    -0.204784   
N98      N      0.814500000000     0.662350000000     0.024630000000    -0.201668   
N99      N      0.828300000000     0.583110000000     0.777330000000    -0.099933   
N100     N      0.856510000000     0.669060000000     0.523900000000    -0.205563   
N101     N      0.850260000000     0.667100000000     0.283550000000    -0.207584   
N102     N      0.866180000000     0.598290000000     0.542800000000    -0.103083   
N103     N      0.745560000000     0.614830000000     0.613050000000    -0.205682   
N104     N      0.589910000000     0.542720000000     0.520570000000    -0.206806   
N105     N      0.743360000000     0.542820000000     0.661160000000    -0.0983638  
N106     N      0.921970000000     0.706180000000     0.693640000000    -0.206191   
N107     N      0.082180000000     0.787430000000     0.768170000000    -0.207144   
N108     N      0.897690000000     0.762180000000     0.740420000000    -0.103632   
O1       O      0.845700000000     0.642230000000     0.592210000000    -0.554677   
O2       O      0.823000000000     0.632700000000     0.716650000000    -0.552491   
O3       O      0.790800000000     0.615060000000     0.637550000000    -0.545471   
O4       O      0.877700000000     0.660070000000     0.671100000000    -0.551495   
O5       O      0.876130000000     0.704850000000     0.671360000000    -0.552683   
O6       O      0.790760000000     0.660520000000     0.633370000000    -0.559914   
O7       O      0.820680000000     0.676970000000     0.714490000000    -0.549927   
O8       O      0.846350000000     0.688030000000     0.590190000000    -0.552944   
O9       O      0.183140000000     0.818400000000     0.741820000000    -0.553159   
O10      O      0.159610000000     0.802520000000     0.866650000000    -0.555222   
O11      O      0.128190000000     0.788190000000     0.787210000000    -0.557231   
O12      O      0.214450000000     0.832390000000     0.822120000000    -0.557664   
O13      O      0.213180000000     0.877360000000     0.825350000000    -0.556114   
O14      O      0.126930000000     0.833180000000     0.789730000000    -0.556041   
O15      O      0.157910000000     0.847140000000     0.869830000000    -0.550779   
O16      O      0.182000000000     0.863410000000     0.745760000000    -0.560171   
O17      O      0.488720000000     0.975550000000     0.047980000000    -0.556937   
O18      O      0.512340000000     0.980080000000     0.923930000000    -0.550048   
O19      O      0.543730000000     0.999280000000     0.003620000000    -0.555524   
O20      O      0.457490000000     0.956470000000     0.968040000000    -0.555551   
O21      O      0.458620000000     0.002550000000     0.963530000000    -0.550386   
O22      O      0.545560000000     0.045420000000     0.994930000000    -0.551391   
O23      O      0.512870000000     0.025640000000     0.916720000000    -0.553864   
O24      O      0.491410000000     0.022320000000     0.041670000000    -0.553535   
O25      O      0.180970000000     0.318380000000     0.248140000000    -0.551841   
O26      O      0.158320000000     0.312290000000     0.373060000000    -0.554754   
O27      O      0.126640000000     0.293510000000     0.293260000000    -0.554246   
O28      O      0.212980000000     0.337100000000     0.326910000000    -0.552715   
O29      O      0.213510000000     0.382920000000     0.323430000000    -0.551506   
O30      O      0.126900000000     0.339160000000     0.288510000000    -0.552319   
O31      O      0.158560000000     0.357960000000     0.367780000000    -0.559358   
O32      O      0.182030000000     0.364370000000     0.243630000000    -0.549644   
O33      O      0.824470000000     0.136210000000     0.207430000000    -0.551804   
O34      O      0.847340000000     0.156010000000     0.083330000000    -0.551382   
O35      O      0.878950000000     0.168470000000     0.162820000000    -0.556305   
O36      O      0.792690000000     0.123530000000     0.128060000000    -0.55714    
O37      O      0.789630000000     0.167240000000     0.137180000000    -0.555733   
O38      O      0.876810000000     0.212910000000     0.167950000000    -0.55361    
O39      O      0.843360000000     0.199250000000     0.090000000000    -0.554384   
O40      O      0.822810000000     0.180630000000     0.215150000000    -0.554905   
O41      O      0.513010000000     0.486500000000     0.415410000000    -0.554104   
O42      O      0.490280000000     0.470570000000     0.540430000000    -0.554393   
O43      O      0.458260000000     0.457920000000     0.461420000000    -0.555998   
O44      O      0.544930000000     0.498950000000     0.494530000000    -0.556174   
O45      O      0.545050000000     0.544460000000     0.501740000000    -0.555609   
O46      O      0.459330000000     0.504080000000     0.463660000000    -0.554329   
O47      O      0.489300000000     0.515550000000     0.544460000000    -0.55015    
O48      O      0.514930000000     0.532960000000     0.420910000000    -0.557228   
O49      O      0.181130000000     0.365440000000     0.743410000000    -0.550011   
O50      O      0.197960000000     0.360320000000     0.868210000000    -0.557295   
O51      O      0.211870000000     0.341690000000     0.789910000000    -0.548015   
O52      O      0.167310000000     0.384050000000     0.822530000000    -0.554175   
O53      O      0.122510000000     0.337740000000     0.826550000000    -0.554503   
O54      O      0.167170000000     0.295440000000     0.794440000000    -0.555966   
O55      O      0.153220000000     0.314050000000     0.873420000000    -0.554735   
O56      O      0.136740000000     0.319050000000     0.748220000000    -0.557092   
O57      O      0.355290000000     0.180370000000     0.708020000000    -0.55305    
O58      O      0.350050000000     0.198300000000     0.583390000000    -0.553818   
O59      O      0.332360000000     0.212450000000     0.662800000000    -0.552842   
O60      O      0.372970000000     0.166450000000     0.628510000000    -0.553753   
O61      O      0.326080000000     0.122940000000     0.621190000000    -0.549294   
O62      O      0.285670000000     0.168040000000     0.659880000000    -0.556015   
O63      O      0.302680000000     0.155140000000     0.578830000000    -0.549134   
O64      O      0.309120000000     0.135910000000     0.702170000000    -0.550806   
O65      O      0.022700000000     0.518070000000     0.034940000000    -0.548465   
O66      O      0.015250000000     0.533980000000     0.910420000000    -0.559299   
O67      O      0.997490000000     0.548000000000     0.989810000000    -0.552657   
O68      O      0.040320000000     0.504270000000     0.955110000000    -0.552409   
O69      O      0.994390000000     0.459130000000     0.952810000000    -0.545763   
O70      O      0.951390000000     0.503030000000     0.985720000000    -0.55321    
O71      O      0.969450000000     0.488890000000     0.906530000000    -0.548551   
O72      O      0.976450000000     0.473460000000     0.031500000000    -0.553883   
O73      O      0.686740000000     0.865720000000     0.254840000000    -0.552389   
O74      O      0.688870000000     0.845710000000     0.379430000000    -0.554251   
O75      O      0.706710000000     0.831470000000     0.300390000000    -0.554523   
O76      O      0.668860000000     0.880100000000     0.334350000000    -0.552702   
O77      O      0.621200000000     0.837380000000     0.326890000000    -0.556966   
O78      O      0.659070000000     0.789000000000     0.292910000000    -0.550175   
O79      O      0.641270000000     0.803210000000     0.372310000000    -0.55034    
O80      O      0.639040000000     0.823230000000     0.248050000000    -0.550701   
O81      O      0.862720000000     0.690060000000     0.212460000000    -0.554945   
O82      O      0.842640000000     0.689930000000     0.087360000000    -0.552841   
O83      O      0.829300000000     0.710100000000     0.165130000000    -0.556123   
O84      O      0.876130000000     0.669750000000     0.134290000000    -0.552248   
O85      O      0.832230000000     0.622760000000     0.141420000000    -0.560255   
O86      O      0.786180000000     0.662970000000     0.174950000000    -0.561022   
O87      O      0.799480000000     0.642570000000     0.096420000000    -0.557318   
O88      O      0.819870000000     0.642520000000     0.220670000000    -0.563049   
O89      O      0.514430000000     0.029630000000     0.417060000000    -0.550434   
O90      O      0.532180000000     0.025890000000     0.541960000000    -0.555728   
O91      O      0.546330000000     0.007170000000     0.463110000000    -0.551986   
O92      O      0.500270000000     0.048160000000     0.495400000000    -0.552799   
O93      O      0.456410000000     0.001230000000     0.501650000000    -0.558439   
O94      O      0.502390000000     0.960490000000     0.469640000000    -0.552385   
O95      O      0.488300000000     0.978940000000     0.547830000000    -0.555905   
O96      O      0.470650000000     0.982810000000     0.422780000000    -0.555862   
O97      O      0.309360000000     0.156730000000     0.077170000000    -0.55654    
O98      O      0.311790000000     0.177780000000     0.201980000000    -0.556025   
O99      O      0.331280000000     0.210800000000     0.123450000000    -0.556315   
O100     O      0.290120000000     0.123820000000     0.155080000000    -0.549916   
O101     O      0.336780000000     0.126550000000     0.162160000000    -0.55408    
O102     O      0.378050000000     0.213700000000     0.131560000000    -0.556208   
O103     O      0.358430000000     0.180290000000     0.209350000000    -0.554829   
O104     O      0.356430000000     0.160120000000     0.083880000000    -0.552632   
O105     O      0.488760000000     0.514600000000     0.046190000000    -0.548687   
O106     O      0.470560000000     0.493400000000     0.921190000000    -0.554666   
O107     O      0.457420000000     0.460450000000     0.999780000000    -0.555489   
O108     O      0.501860000000     0.547430000000     0.968210000000    -0.548657   
O109     O      0.546230000000     0.545540000000     0.961010000000    -0.554594   
O110     O      0.501720000000     0.458460000000     0.992310000000    -0.549258   
O111     O      0.515020000000     0.491480000000     0.914370000000    -0.554675   
O112     O      0.532950000000     0.512360000000     0.039530000000    -0.553815   
O113     O      0.138480000000     0.825500000000     0.246770000000    -0.556452   
O114     O      0.157070000000     0.846780000000     0.371700000000    -0.550653   
O115     O      0.170750000000     0.879490000000     0.293460000000    -0.556855   
O116     O      0.124610000000     0.792760000000     0.325560000000    -0.557542   
O117     O      0.168330000000     0.789460000000     0.318550000000    -0.55527    
O118     O      0.214570000000     0.876420000000     0.286220000000    -0.553475   
O119     O      0.200680000000     0.843460000000     0.365080000000    -0.55532    
O120     O      0.182230000000     0.822220000000     0.240210000000    -0.557424   
O121     O      0.977320000000     0.511690000000     0.529620000000    -0.557108   
O122     O      0.973080000000     0.488830000000     0.405420000000    -0.558475   
O123     O      0.953660000000     0.457080000000     0.484920000000    -0.555692   
O124     O      0.997060000000     0.543630000000     0.450370000000    -0.553578   
O125     O      0.043010000000     0.545110000000     0.459490000000    -0.55081    
O126     O      0.999580000000     0.457840000000     0.488860000000    -0.549482   
O127     O      0.019890000000     0.491570000000     0.411400000000    -0.554233   
O128     O      0.022680000000     0.511550000000     0.536960000000    -0.553402   
O129     O      0.801270000000     0.160020000000     0.588960000000    -0.554251   
O130     O      0.817760000000     0.182540000000     0.713940000000    -0.554006   
O131     O      0.831190000000     0.214450000000     0.634190000000    -0.557714   
O132     O      0.787600000000     0.127860000000     0.667770000000    -0.54959    
O133     O      0.832720000000     0.126970000000     0.664580000000    -0.556135   
O134     O      0.876220000000     0.213390000000     0.629530000000    -0.556145   
O135     O      0.862980000000     0.181890000000     0.708890000000    -0.559235   
O136     O      0.845960000000     0.158280000000     0.584650000000    -0.556904   
O137     O      0.648380000000     0.846670000000     0.873700000000    -0.557655   
O138     O      0.642990000000     0.824340000000     0.749020000000    -0.55786    
O139     O      0.624840000000     0.792130000000     0.827870000000    -0.555964   
O140     O      0.666670000000     0.878960000000     0.795030000000    -0.555621   
O141     O      0.713080000000     0.880600000000     0.798580000000    -0.556502   
O142     O      0.671420000000     0.794370000000     0.834110000000    -0.5558     
O143     O      0.689250000000     0.825810000000     0.754060000000    -0.554553   
O144     O      0.695190000000     0.849300000000     0.878710000000    -0.553837   
V1       V      0.834290000000     0.635710000000     0.654450000000     1.4235     
V2       V      0.833430000000     0.684380000000     0.652240000000     1.39808    
V3       V      0.171440000000     0.808610000000     0.804210000000     1.39202    
V4       V      0.169950000000     0.857040000000     0.807840000000     1.41515    
V5       V      0.500510000000     0.976020000000     0.986200000000     1.40374    
V6       V      0.502170000000     0.025810000000     0.978940000000     1.4114     
V7       V      0.169680000000     0.313510000000     0.310680000000     1.41689    
V8       V      0.170270000000     0.362920000000     0.305610000000     1.40187    
V9       V      0.835960000000     0.144330000000     0.145100000000     1.42178    
V10      V      0.833060000000     0.191770000000     0.152890000000     1.3881     
V11      V      0.501590000000     0.476660000000     0.477740000000     1.39059    
V12      V      0.502200000000     0.526080000000     0.482900000000     1.41079    
V13      V      0.191310000000     0.364710000000     0.805730000000     1.41592    
V14      V      0.143140000000     0.314740000000     0.810940000000     1.39192    
V15      V      0.354530000000     0.191160000000     0.645920000000     1.38118    
V16      V      0.304050000000     0.143790000000     0.640310000000     1.4282     
V17      V      0.020740000000     0.527870000000     0.972780000000     1.39883    
V18      V      0.971090000000     0.479360000000     0.968940000000     1.40874    
V19      V      0.689690000000     0.857470000000     0.317520000000     1.38214    
V20      V      0.638290000000     0.811530000000     0.309810000000     1.43095    
V21      V      0.854460000000     0.691880000000     0.149570000000     1.38536    
V22      V      0.807690000000     0.640930000000     0.158960000000     1.42955    
V23      V      0.525070000000     0.029560000000     0.479160000000     1.39923    
V24      V      0.477690000000     0.979040000000     0.485660000000     1.40882    
V25      V      0.308810000000     0.167200000000     0.139190000000     1.41126    
V26      V      0.359270000000     0.170250000000     0.147010000000     1.39046    
V27      V      0.477880000000     0.504020000000     0.984080000000     1.41266    
V28      V      0.525760000000     0.501910000000     0.976560000000     1.39965    
V29      V      0.146000000000     0.836240000000     0.309610000000     1.41015    
V30      V      0.193210000000     0.832790000000     0.302270000000     1.39215    
V31      V      0.973450000000     0.500260000000     0.467270000000     1.39947    
V32      V      0.023110000000     0.501550000000     0.474460000000     1.4103     
V33      V      0.807680000000     0.171280000000     0.651520000000     1.40346    
V34      V      0.856240000000     0.170090000000     0.646690000000     1.39928    
V35      V      0.643890000000     0.835440000000     0.811180000000     1.40371    
V36      V      0.694080000000     0.837590000000     0.816580000000     1.3921     


