data_structure

_audit_creation_method RASPA-1.0
_audit_creation_date 2023-6-5
_audit_author_name 'Poobodin Mano'

_cell_length_a    48.9383
_cell_length_b    48.879
_cell_length_c    29.246
_cell_angle_alpha 89.9762
_cell_angle_beta  90.0235
_cell_angle_gamma 119.98
_cell_volume      60597.6

_symmetry_cell_setting          triclinic
_symmetry_space_group_name_Hall 'P 1'
_symmetry_space_group_name_H-M  'P 1'
_symmetry_Int_Tables_number     1

_symmetry_equiv_pos_as_xyz 'x,y,z'

loop_
_atom_site_label
_atom_site_type_symbol
_atom_site_fract_x
_atom_site_fract_y
_atom_site_fract_z
_atom_site_charge
C1       C      0.851190000000     0.673740000000     0.557510000000     0.48443    
C2       C      0.818120000000     0.668610000000     0.723240000000     0.492789   
C3       C      0.777940000000     0.644540000000     0.613650000000     0.492245   
C4       C      0.892050000000     0.698070000000     0.666350000000     0.481729   
C5       C      0.185090000000     0.846360000000     0.730870000000     0.492473   
C6       C      0.147780000000     0.818780000000     0.895550000000     0.494138   
C7       C      0.110180000000     0.803740000000     0.783910000000     0.492851   
C8       C      0.222920000000     0.861310000000     0.842630000000     0.492568   
C9       C      0.515430000000     0.000330000000     0.891490000000     0.490727   
C10      C      0.486080000000     0.997610000000     0.058550000000     0.481869   
C11      C      0.443430000000     0.971530000000     0.951530000000     0.48182    
C12      C      0.558670000000     0.026920000000     0.998750000000     0.481359   
C13      C      0.151350000000     0.328300000000     0.394360000000     0.486919   
C14      C      0.183030000000     0.336990000000     0.227550000000     0.482973   
C15      C      0.224830000000     0.359170000000     0.335090000000     0.488586   
C16      C      0.109640000000     0.305940000000     0.287240000000     0.491972   
C17      C      0.851320000000     0.179250000000     0.059860000000     0.490623   
C18      C      0.817190000000     0.152110000000     0.225760000000     0.491827   
C19      C      0.777050000000     0.134800000000     0.117280000000     0.491533   
C20      C      0.891490000000     0.196170000000     0.168790000000     0.482096   
C21      C      0.516370000000     0.515520000000     0.391430000000     0.489756   
C22      C      0.485510000000     0.487010000000     0.557880000000     0.492045   
C23      C      0.444000000000     0.470990000000     0.450630000000     0.484222   
C24      C      0.558940000000     0.532190000000     0.499320000000     0.481482   
C25      C      0.152720000000     0.331050000000     0.727270000000     0.491139   
C26      C      0.181790000000     0.334170000000     0.894630000000     0.490919   
C27      C      0.197520000000     0.304900000000     0.789100000000     0.483409   
C28      C      0.136940000000     0.360240000000     0.832990000000     0.483621   
C29      C      0.338370000000     0.151670000000     0.728840000000     0.492027   
C30      C      0.328920000000     0.178410000000     0.563690000000     0.484605   
C31      C      0.306790000000     0.194990000000     0.675530000000     0.491228   
C32      C      0.360280000000     0.135750000000     0.616950000000     0.492873   
C33      C      0.000500000000     0.513520000000     0.889650000000     0.49019    
C34      C      0.001650000000     0.487340000000     0.057460000000     0.481639   
C35      C      0.027320000000     0.468970000000     0.951790000000     0.490593   
C36      C      0.973940000000     0.531480000000     0.996200000000     0.482023   
C37      C      0.668750000000     0.850940000000     0.226280000000     0.489807   
C38      C      0.675610000000     0.825290000000     0.392950000000     0.481337   
C39      C      0.700850000000     0.809270000000     0.284200000000     0.481646   
C40      C      0.644100000000     0.867380000000     0.334250000000     0.490648   
C41      C      0.853410000000     0.671810000000     0.224100000000     0.49382    
C42      C      0.829660000000     0.676820000000     0.056170000000     0.482316   
C43      C      0.813530000000     0.704100000000     0.162600000000     0.490586   
C44      C      0.869830000000     0.644430000000     0.118430000000     0.493339   
C45      C      0.511790000000     0.995940000000     0.558460000000     0.481677   
C46      C      0.484940000000     0.999740000000     0.391730000000     0.49011    
C47      C      0.468270000000     0.025320000000     0.499900000000     0.482211   
C48      C      0.528640000000     0.970830000000     0.450710000000     0.482375   
C49      C      0.337500000000     0.181610000000     0.229990000000     0.490021   
C50      C      0.333790000000     0.152090000000     0.062550000000     0.48314    
C51      C      0.307660000000     0.108490000000     0.168760000000     0.492038   
C52      C      0.363160000000     0.224240000000     0.123320000000     0.482246   
C53      C      0.515410000000     0.513260000000     0.058130000000     0.481405   
C54      C      0.491400000000     0.482990000000     0.890860000000     0.484456   
C55      C      0.472730000000     0.440150000000     0.997350000000     0.49168    
C56      C      0.534050000000     0.555650000000     0.950730000000     0.48095    
C57      C      0.179470000000     0.847030000000     0.396940000000     0.482447   
C58      C      0.154280000000     0.818490000000     0.229160000000     0.480401   
C59      C      0.136380000000     0.775250000000     0.337060000000     0.489954   
C60      C      0.197360000000     0.890650000000     0.289800000000     0.479857   
C61      C      0.003610000000     0.514300000000     0.555850000000     0.480658   
C62      C      0.995600000000     0.479930000000     0.390230000000     0.49256    
C63      C      0.972650000000     0.440490000000     0.499270000000     0.484369   
C64      C      0.027180000000     0.554750000000     0.446560000000     0.480267   
C65      C      0.847500000000     0.180400000000     0.726180000000     0.483839   
C66      C      0.821280000000     0.149460000000     0.559350000000     0.483389   
C67      C      0.803570000000     0.107780000000     0.668620000000     0.490913   
C68      C      0.865130000000     0.222140000000     0.616820000000     0.490942   
C69      C      0.673230000000     0.847590000000     0.893020000000     0.482892   
C70      C      0.669730000000     0.815970000000     0.726570000000     0.489604   
C71      C      0.645470000000     0.774730000000     0.835850000000     0.492058   
C72      C      0.697540000000     0.889200000000     0.784730000000     0.482089   
C73      C      0.759590000000     0.065630000000     0.709160000000     0.170258   
C74      C      0.799770000000     0.057870000000     0.676700000000     0.0834513  
C75      C      0.743760000000     0.034160000000     0.724330000000    -0.112102   
C76      C      0.707780000000     0.963010000000     0.736440000000    -0.0847732  
C77      C      0.784560000000     0.026650000000     0.691730000000    -0.0948303  
C78      C      0.740740000000     0.981640000000     0.734680000000     0.0339931  
C79      C      0.756330000000     0.014420000000     0.716210000000     0.0518113  
C80      C      0.693700000000     0.932350000000     0.754020000000     0.0781455  
C81      C      0.743940000000     0.937950000000     0.768110000000     0.0786401  
C82      C      0.758770000000     0.968760000000     0.751220000000    -0.0847331  
C83      C      0.909010000000     0.264090000000     0.575910000000     0.171415   
C84      C      0.868930000000     0.272040000000     0.608300000000     0.0837548  
C85      C      0.924830000000     0.295500000000     0.560510000000    -0.111632   
C86      C      0.961230000000     0.366380000000     0.548010000000    -0.084981   
C87      C      0.884180000000     0.303240000000     0.593100000000    -0.0944515  
C88      C      0.928250000000     0.348200000000     0.550230000000     0.034843   
C89      C      0.912400000000     0.315360000000     0.568590000000     0.052168   
C90      C      0.975650000000     0.396970000000     0.530210000000     0.0801935  
C91      C      0.925750000000     0.392400000000     0.517110000000     0.0799702  
C92      C      0.910550000000     0.361600000000     0.534170000000    -0.0843341  
C93      C      0.092560000000     0.732630000000     0.377090000000     0.171538   
C94      C      0.132370000000     0.725060000000     0.342880000000     0.0826515  
C95      C      0.076440000000     0.700860000000     0.390830000000    -0.111511   
C96      C      0.039340000000     0.629720000000     0.399930000000    -0.0843837  
C97      C      0.116820000000     0.693470000000     0.356490000000    -0.0946027  
C98      C      0.072350000000     0.647680000000     0.397760000000     0.0336363  
C99      C      0.088540000000     0.680950000000     0.380970000000     0.051563   
C100     C      0.024630000000     0.598840000000     0.416800000000     0.0771709  
C101     C      0.074300000000     0.602690000000     0.428890000000     0.0767061  
C102     C      0.089770000000     0.633720000000     0.412700000000    -0.0854897  
C103     C      0.647450000000     0.732780000000     0.876960000000     0.172012   
C104     C      0.599610000000     0.724650000000     0.843650000000     0.0838255  
C105     C      0.631920000000     0.701340000000     0.892300000000    -0.111909   
C106     C      0.597480000000     0.630300000000     0.904630000000    -0.0852265  
C107     C      0.583720000000     0.693440000000     0.858750000000    -0.0949669  
C108     C      0.582690000000     0.648510000000     0.902000000000     0.0334002  
C109     C      0.599720000000     0.681390000000     0.883740000000     0.0515407  
C110     C      0.581090000000     0.599540000000     0.921840000000     0.0771236  
C111     C      0.535630000000     0.604080000000     0.933780000000     0.0765717  
C112     C      0.551440000000     0.635030000000     0.917300000000    -0.0856596  
C113     C      0.305790000000     0.058510000000     0.178480000000     0.171151   
C114     C      0.264000000000     0.065940000000     0.204820000000     0.0837572  
C115     C      0.290630000000     0.027920000000     0.197310000000    -0.111044   
C116     C      0.261800000000     0.968390000000     0.254410000000    -0.0839811  
C117     C      0.248860000000     0.035950000000     0.224410000000    -0.0944423  
C118     C      0.245190000000     0.983460000000     0.240130000000     0.0335688  
C119     C      0.261920000000     0.016250000000     0.220800000000     0.0516201  
C120     C      0.245520000000     0.937370000000     0.270900000000     0.077261   
C121     C      0.196800000000     0.936090000000     0.262090000000     0.0774775  
C122     C      0.212180000000     0.966620000000     0.244130000000    -0.0847275  
C123     C      0.467870000000     0.388710000000     0.005070000000     0.170567   
C124     C      0.428630000000     0.398830000000     0.035140000000     0.0829241  
C125     C      0.452610000000     0.358650000000     0.025330000000    -0.112279   
C126     C      0.426070000000     0.303170000000     0.090100000000    -0.0845058  
C127     C      0.412960000000     0.368960000000     0.055250000000    -0.0945473  
C128     C      0.408760000000     0.316510000000     0.072240000000     0.033919   
C129     C      0.425090000000     0.348540000000     0.051070000000     0.0513816  
C130     C      0.410460000000     0.272530000000     0.107760000000     0.0794978  
C131     C      0.360900000000     0.268190000000     0.092390000000     0.0779536  
C132     C      0.375750000000     0.298660000000     0.074050000000    -0.0849378  
C133     C      0.694630000000     0.809410000000     0.658910000000     0.17085    
C134     C      0.645140000000     0.807350000000     0.654090000000     0.0826238  
C135     C      0.696560000000     0.809980000000     0.610900000000    -0.112435   
C136     C      0.701550000000     0.835200000000     0.512510000000    -0.0840164  
C137     C      0.646030000000     0.806690000000     0.606510000000    -0.095389   
C138     C      0.674610000000     0.811170000000     0.533830000000     0.0341355  
C139     C      0.672350000000     0.809020000000     0.584390000000     0.0518696  
C140     C      0.701880000000     0.839130000000     0.465100000000     0.079234   
C141     C      0.650350000000     0.794800000000     0.459280000000     0.0777367  
C142     C      0.649060000000     0.790520000000     0.506590000000    -0.0854411  
C143     C      0.691030000000     0.883180000000     0.158430000000     0.17162    
C144     C      0.643730000000     0.833490000000     0.154300000000     0.0829779  
C145     C      0.692380000000     0.884660000000     0.110410000000    -0.112702   
C146     C      0.645040000000     0.853820000000     0.006450000000    -0.0850005  
C147     C      0.643950000000     0.835080000000     0.106730000000    -0.09548    
C148     C      0.671130000000     0.860430000000     0.033720000000     0.0346951  
C149     C      0.668980000000     0.860310000000     0.084260000000     0.0523315  
C150     C      0.646600000000     0.850980000000     0.959120000000     0.0786615  
C151     C      0.699290000000     0.861450000000     0.965190000000     0.0820219  
C152     C      0.698720000000     0.865030000000     0.012500000000    -0.0837046  
C153     C      0.814900000000     0.750820000000     0.193060000000     0.173613   
C154     C      0.766120000000     0.704340000000     0.177940000000     0.083344   
C155     C      0.798690000000     0.764910000000     0.212220000000    -0.112199   
C156     C      0.762500000000     0.797770000000     0.232950000000    -0.0836575  
C157     C      0.749470000000     0.718560000000     0.194560000000    -0.0938252  
C158     C      0.748290000000     0.764710000000     0.231830000000     0.0342691  
C159     C      0.765610000000     0.749140000000     0.212790000000     0.0527176  
C160     C      0.746620000000     0.812070000000     0.251850000000     0.0796156  
C161     C      0.701700000000     0.762120000000     0.266090000000     0.0776508  
C162     C      0.717440000000     0.746950000000     0.249170000000    -0.0836637  
C163     C      0.644860000000     0.913660000000     0.365710000000     0.17262    
C164     C      0.596340000000     0.867240000000     0.348870000000     0.0822549  
C165     C      0.628310000000     0.927540000000     0.384360000000    -0.112632   
C166     C      0.590690000000     0.959870000000     0.399340000000    -0.0849345  
C167     C      0.579420000000     0.881150000000     0.365530000000    -0.0942802  
C168     C      0.577700000000     0.927020000000     0.402080000000     0.0339384  
C169     C      0.595290000000     0.911610000000     0.384060000000     0.0517015  
C170     C      0.574270000000     0.974080000000     0.416710000000     0.0788599  
C171     C      0.531590000000     0.924170000000     0.438040000000     0.0787797  
C172     C      0.547760000000     0.909220000000     0.422080000000    -0.0845647  
C173     C      0.028310000000     0.541930000000     0.821350000000     0.171397   
C174     C      0.974670000000     0.501010000000     0.817750000000     0.0838442  
C175     C      0.028520000000     0.545730000000     0.773830000000    -0.112426   
C176     C      0.029870000000     0.528510000000     0.674980000000    -0.0852597  
C177     C      0.974550000000     0.504090000000     0.770330000000    -0.0936596  
C178     C      0.003580000000     0.526640000000     0.696980000000     0.0336763  
C179     C      0.001900000000     0.526150000000     0.747710000000     0.0514523  
C180     C      0.029960000000     0.525540000000     0.627580000000     0.0778287  
C181     C      0.979260000000     0.520440000000     0.622690000000     0.0773459  
C182     C      0.978330000000     0.523180000000     0.670170000000    -0.0850324  
C183     C      0.967060000000     0.462090000000     0.319010000000     0.171421   
C184     C      0.021500000000     0.477850000000     0.323080000000     0.0834574  
C185     C      0.968370000000     0.461420000000     0.271090000000    -0.11235    
C186     C      0.974680000000     0.450660000000     0.170120000000    -0.0844195  
C187     C      0.023190000000     0.476730000000     0.275600000000    -0.095367   
C188     C      0.999150000000     0.472270000000     0.198290000000     0.0347946  
C189     C      0.996760000000     0.469600000000     0.248920000000     0.0524798  
C190     C      0.976280000000     0.455490000000     0.122850000000     0.0795823  
C191     C      0.026160000000     0.501890000000     0.130530000000     0.0782565  
C192     C      0.025340000000     0.497780000000     0.177780000000    -0.0861689  
C193     C      0.916870000000     0.640770000000     0.109780000000     0.17189    
C194     C      0.867290000000     0.599960000000     0.082720000000     0.0838253  
C195     C      0.931690000000     0.625130000000     0.090700000000    -0.111632   
C196     C      0.961510000000     0.596290000000     0.032410000000    -0.0842882  
C197     C      0.881560000000     0.584350000000     0.062840000000    -0.0943546  
C198     C      0.929800000000     0.579850000000     0.046410000000     0.034142   
C199     C      0.914220000000     0.596790000000     0.066480000000     0.0516412  
C200     C      0.975950000000     0.579830000000     0.015610000000     0.0789462  
C201     C      0.928080000000     0.531330000000     0.023240000000     0.0779418  
C202     C      0.913220000000     0.546870000000     0.041520000000    -0.0850619  
C203     C      0.316450000000     0.119340000000     0.796520000000     0.171612   
C204     C      0.363990000000     0.168830000000     0.800550000000     0.0869692  
C205     C      0.315130000000     0.117830000000     0.844510000000    -0.112374   
C206     C      0.362390000000     0.147820000000     0.948460000000    -0.0850805  
C207     C      0.363780000000     0.167210000000     0.848170000000    -0.0932574  
C208     C      0.336450000000     0.141750000000     0.921240000000     0.0347671  
C209     C      0.338610000000     0.142090000000     0.870670000000     0.0522464  
C210     C      0.360620000000     0.149840000000     0.995920000000     0.0801313  
C211     C      0.308060000000     0.139770000000     0.990070000000     0.0793349  
C212     C      0.308830000000     0.136980000000     0.942610000000    -0.0846629  
C213     C      0.364340000000     0.198130000000     0.302740000000     0.171452   
C214     C      0.310000000000     0.182360000000     0.296210000000     0.0830477  
C215     C      0.362150000000     0.199080000000     0.350540000000    -0.112168   
C216     C      0.354600000000     0.212840000000     0.449650000000    -0.0827658  
C217     C      0.307410000000     0.183600000000     0.343580000000    -0.0951924  
C218     C      0.330550000000     0.190050000000     0.422150000000     0.0350535  
C219     C      0.333450000000     0.191260000000     0.371460000000     0.0523626  
C220     C      0.352950000000     0.209400000000     0.497170000000     0.0842079  
C221     C      0.303610000000     0.162210000000     0.491170000000     0.0796675  
C222     C      0.304450000000     0.164980000000     0.443590000000    -0.0841169  
C223     C      0.402520000000     0.136330000000     0.574190000000     0.171531   
C224     C      0.361120000000     0.088320000000     0.604710000000     0.0842745  
C225     C      0.417570000000     0.120250000000     0.558060000000    -0.112353   
C226     C      0.454110000000     0.086940000000     0.544920000000    -0.0854926  
C227     C      0.375930000000     0.071890000000     0.589430000000    -0.092735   
C228     C      0.421130000000     0.070970000000     0.548960000000     0.0342184  
C229     C      0.404680000000     0.087830000000     0.565930000000     0.0516571  
C230     C      0.469270000000     0.071490000000     0.527510000000     0.0783935  
C231     C      0.420380000000     0.023990000000     0.520050000000     0.0778398  
C232     C      0.404300000000     0.039030000000     0.536080000000    -0.0843754  
C233     C      0.024670000000     0.421100000000     0.923390000000     0.171426   
C234     C      0.074100000000     0.467480000000     0.935840000000     0.0845311  
C235     C      0.040120000000     0.406320000000     0.903880000000    -0.111959   
C236     C      0.076420000000     0.372810000000     0.886220000000    -0.084535   
C237     C      0.090000000000     0.452700000000     0.918450000000    -0.0929952  
C238     C      0.089620000000     0.405650000000     0.882290000000     0.0348351  
C239     C      0.073090000000     0.421860000000     0.901430000000     0.0520972  
C240     C      0.092090000000     0.357980000000     0.868250000000     0.0800558  
C241     C      0.134310000000     0.407220000000     0.843620000000     0.0805154  
C242     C      0.118850000000     0.422740000000     0.860100000000    -0.084199   
C243     C      0.308850000000     0.238520000000     0.717610000000     0.170939   
C244     C      0.260620000000     0.198390000000     0.685760000000     0.0841798  
C245     C      0.293550000000     0.254650000000     0.732840000000    -0.112266   
C246     C      0.259740000000     0.291940000000     0.742730000000    -0.0846355  
C247     C      0.244910000000     0.213890000000     0.700970000000    -0.0943049  
C248     C      0.244800000000     0.258880000000     0.742390000000     0.0343918  
C249     C      0.261330000000     0.242400000000     0.724810000000     0.051916   
C250     C      0.243840000000     0.306970000000     0.759280000000     0.0790484  
C251     C      0.198640000000     0.257470000000     0.775220000000     0.0802694  
C252     C      0.213930000000     0.241700000000     0.759300000000    -0.0846524  
C253     C      0.467800000000     0.495920000000     0.630440000000     0.170815   
C254     C      0.485580000000     0.458840000000     0.623750000000     0.0833783  
C255     C      0.467360000000     0.493060000000     0.678200000000    -0.112912   
C256     C      0.455800000000     0.473170000000     0.777570000000    -0.0849686  
C257     C      0.484750000000     0.455180000000     0.671120000000    -0.0949794  
C258     C      0.478420000000     0.471980000000     0.749650000000     0.0344817  
C259     C      0.476480000000     0.473090000000     0.699030000000     0.0519232  
C260     C      0.459920000000     0.475690000000     0.824910000000     0.0794062  
C261     C      0.507410000000     0.474180000000     0.818030000000     0.0803889  
C262     C      0.504050000000     0.471720000000     0.770550000000    -0.0842619  
C263     C      0.518240000000     0.544300000000     0.322750000000     0.169226   
C264     C      0.530970000000     0.503320000000     0.320430000000     0.0818279  
C265     C      0.522200000000     0.547870000000     0.275190000000    -0.112829   
C266     C      0.503720000000     0.529390000000     0.176500000000    -0.0863834  
C267     C      0.534590000000     0.506190000000     0.273110000000    -0.0954596  
C268     C      0.528180000000     0.527860000000     0.198980000000     0.0329594  
C269     C      0.529380000000     0.528070000000     0.249750000000     0.0504074  
C270     C      0.500420000000     0.525410000000     0.129240000000     0.0770868  
C271     C      0.545780000000     0.519850000000     0.125320000000     0.0761897  
C272     C      0.549710000000     0.523620000000     0.172710000000    -0.0860117  
C273     C      0.860970000000     0.211770000000     0.992520000000     0.171367   
C274     C      0.860210000000     0.162830000000     0.987840000000     0.0840074  
C275     C      0.861490000000     0.213680000000     0.944560000000    -0.112374   
C276     C      0.837280000000     0.195430000000     0.845930000000    -0.0836671  
C277     C      0.861920000000     0.164850000000     0.940270000000    -0.0937275  
C278     C      0.860080000000     0.190650000000     0.867510000000     0.0353532  
C279     C      0.861510000000     0.189920000000     0.918090000000     0.0524024  
C280     C      0.833970000000     0.192820000000     0.798440000000     0.0824267  
C281     C      0.876610000000     0.182930000000     0.792960000000     0.079746   
C282     C      0.880200000000     0.184830000000     0.840460000000    -0.0848211  
C283     C      0.799760000000     0.162660000000     0.297540000000     0.172129   
C284     C      0.815280000000     0.123780000000     0.292580000000     0.0853812  
C285     C      0.798800000000     0.160100000000     0.345420000000    -0.111528   
C286     C      0.786390000000     0.141260000000     0.445640000000    -0.0840191  
C287     C      0.813910000000     0.120430000000     0.340040000000    -0.0934897  
C288     C      0.808360000000     0.138690000000     0.417940000000     0.0353643  
C289     C      0.806590000000     0.139410000000     0.367190000000     0.0527724  
C290     C      0.790380000000     0.143660000000     0.493100000000     0.0794956  
C291     C      0.836550000000     0.139710000000     0.486620000000     0.0821264  
C292     C      0.833270000000     0.137240000000     0.439150000000    -0.083167   
C293     C      0.123780000000     0.302050000000     0.659960000000     0.170979   
C294     C      0.163640000000     0.356120000000     0.655070000000     0.0832919  
C295     C      0.119370000000     0.301370000000     0.612460000000    -0.112012   
C296     C      0.136120000000     0.300480000000     0.512800000000    -0.0842301  
C297     C      0.159940000000     0.355810000000     0.607860000000    -0.0951498  
C298     C      0.137260000000     0.326360000000     0.535160000000     0.0353625  
C299     C      0.138110000000     0.328070000000     0.585850000000     0.0522076  
C300     C      0.139690000000     0.301000000000     0.465430000000     0.081568   
C301     C      0.143880000000     0.351410000000     0.461420000000     0.08152    
C302     C      0.140390000000     0.351670000000     0.508750000000    -0.0850747  
C303     C      0.210410000000     0.363280000000     0.962040000000     0.169343   
C304     C      0.171180000000     0.308960000000     0.966720000000     0.0822352  
C305     C      0.214800000000     0.363950000000     0.009520000000    -0.112676   
C306     C      0.197460000000     0.364410000000     0.108920000000    -0.0857819  
C307     C      0.174870000000     0.309260000000     0.013950000000    -0.095422   
C308     C      0.197040000000     0.338830000000     0.086720000000     0.0333043  
C309     C      0.196340000000     0.337120000000     0.036040000000     0.0507399  
C310     C      0.193870000000     0.363910000000     0.156260000000     0.0778724  
C311     C      0.191070000000     0.314130000000     0.160620000000     0.0772136  
C312     C      0.194540000000     0.313840000000     0.113260000000    -0.086271   
C313     C      0.059900000000     0.304670000000     0.278410000000     0.170148   
C314     C      0.066970000000     0.262990000000     0.250220000000     0.0836062  
C315     C      0.029200000000     0.289710000000     0.260130000000    -0.110744   
C316     C      0.969070000000     0.260870000000     0.204090000000    -0.0829072  
C317     C      0.036850000000     0.248040000000     0.231290000000    -0.0946604  
C318     C      0.984230000000     0.244300000000     0.218070000000     0.0349082  
C319     C      0.017240000000     0.261080000000     0.236290000000     0.0509232  
C320     C      0.937980000000     0.244480000000     0.187990000000     0.0799147  
C321     C      0.936740000000     0.195740000000     0.197270000000     0.0785491  
C322     C      0.967340000000     0.211230000000     0.214730000000    -0.0850797  
C323     C      0.269790000000     0.356770000000     0.365340000000     0.169687   
C324     C      0.273230000000     0.406090000000     0.349760000000     0.0814953  
C325     C      0.300360000000     0.372560000000     0.383730000000    -0.111968   
C326     C      0.370540000000     0.409180000000     0.399540000000    -0.0843615  
C327     C      0.304120000000     0.422250000000     0.366220000000    -0.0943919  
C328     C      0.351000000000     0.422530000000     0.402540000000     0.0342596  
C329     C      0.318070000000     0.405600000000     0.384150000000     0.0512319  
C330     C      0.401240000000     0.425330000000     0.416840000000     0.0793554  
C331     C      0.394490000000     0.468190000000     0.438990000000     0.0816951  
C332     C      0.363400000000     0.452340000000     0.423120000000    -0.0833815  
C333     C      0.518080000000     0.973330000000     0.823590000000     0.170524   
C334     C      0.528190000000     0.026210000000     0.819630000000     0.082465   
C335     C      0.521780000000     0.973220000000     0.776110000000    -0.11288    
C336     C      0.501400000000     0.970750000000     0.677980000000    -0.0864527  
C337     C      0.531540000000     0.026420000000     0.772270000000    -0.0946387  
C338     C      0.525840000000     0.997430000000     0.699260000000     0.0337202  
C339     C      0.527500000000     0.999430000000     0.749870000000     0.0513517  
C340     C      0.497710000000     0.970280000000     0.630710000000     0.077925   
C341     C      0.542740000000     0.021350000000     0.624520000000     0.0768857  
C342     C      0.546980000000     0.022720000000     0.671920000000    -0.0858563  
C343     C      0.455400000000     0.973590000000     0.323270000000     0.170425   
C344     C      0.498330000000     0.026340000000     0.320410000000     0.0826271  
C345     C      0.452020000000     0.973870000000     0.275730000000    -0.113017   
C346     C      0.470180000000     0.971770000000     0.177740000000    -0.0858907  
C347     C      0.495610000000     0.026940000000     0.273000000000    -0.0946789  
C348     C      0.472940000000     0.998590000000     0.199330000000     0.0336927  
C349     C      0.472850000000     0.000190000000     0.249990000000     0.052041   
C350     C      0.473680000000     0.971530000000     0.130500000000     0.078222   
C351     C      0.481170000000     0.023240000000     0.124880000000     0.0774041  
C352     C      0.477990000000     0.024350000000     0.172250000000    -0.0850311  
C353     C      0.732570000000     0.087750000000     0.085460000000     0.172837   
C354     C      0.728740000000     0.133330000000     0.101770000000     0.0852247  
C355     C      0.702240000000     0.073100000000     0.066350000000    -0.111419   
C356     C      0.632210000000     0.039260000000     0.050270000000    -0.0846481  
C357     C      0.698040000000     0.118680000000     0.084570000000    -0.0924565  
C358     C      0.651550000000     0.072170000000     0.047340000000     0.034668   
C359     C      0.684390000000     0.088270000000     0.066020000000     0.052302   
C360     C      0.601590000000     0.024520000000     0.032780000000     0.079051   
C361     C      0.607980000000     0.073980000000     0.010520000000     0.0776595  
C362     C      0.639030000000     0.089440000000     0.026660000000    -0.0848109  
C363     C      0.195340000000     0.878810000000     0.663320000000     0.171903   
C364     C      0.192970000000     0.829100000000     0.658860000000     0.0872653  
C365     C      0.195220000000     0.880340000000     0.615340000000    -0.112306   
C366     C      0.169410000000     0.861460000000     0.517150000000    -0.0835585  
C367     C      0.194070000000     0.830730000000     0.611230000000    -0.0926644  
C368     C      0.192190000000     0.856480000000     0.538400000000     0.0350185  
C369     C      0.194090000000     0.855990000000     0.588970000000     0.0525829  
C370     C      0.165920000000     0.858950000000     0.469640000000     0.0820699  
C371     C      0.208290000000     0.848690000000     0.463580000000     0.0786853  
C372     C      0.212010000000     0.850430000000     0.511050000000    -0.0854088  
C373     C      0.130830000000     0.830090000000     0.967150000000     0.172673   
C374     C      0.145450000000     0.790520000000     0.962660000000     0.088447   
C375     C      0.130340000000     0.828060000000     0.015110000000    -0.110715   
C376     C      0.118670000000     0.809860000000     0.115850000000    -0.0839211  
C377     C      0.144680000000     0.787800000000     0.010200000000    -0.0915974  
C378     C      0.140490000000     0.807300000000     0.087830000000     0.0350497  
C379     C      0.138090000000     0.807410000000     0.037110000000     0.0525962  
C380     C      0.123020000000     0.812500000000     0.163240000000     0.078808   
C381     C      0.169490000000     0.809140000000     0.156060000000     0.078053   
C382     C      0.165780000000     0.806320000000     0.108640000000    -0.085174   
C383     C      0.265270000000     0.860360000000     0.883140000000     0.171493   
C384     C      0.271480000000     0.908530000000     0.853850000000     0.0851249  
C385     C      0.296730000000     0.876280000000     0.897970000000    -0.111788   
C386     C      0.366930000000     0.909620000000     0.908850000000    -0.0841375  
C387     C      0.302980000000     0.924780000000     0.867830000000    -0.0919485  
C388     C      0.349780000000     0.925540000000     0.905920000000     0.0344072  
C389     C      0.316180000000     0.908720000000     0.890120000000     0.0518023  
C390     C      0.397890000000     0.925180000000     0.925040000000     0.0794656  
C391     C      0.396450000000     0.972620000000     0.933510000000     0.0779036  
C392     C      0.365070000000     0.957510000000     0.918720000000    -0.0842043  
C393     C      0.800780000000     0.641370000000     0.795410000000     0.170974   
C394     C      0.819370000000     0.696480000000     0.790140000000     0.0846821  
C395     C      0.801370000000     0.643460000000     0.843290000000    -0.112573   
C396     C      0.792210000000     0.651760000000     0.943800000000    -0.0852497  
C397     C      0.819660000000     0.699000000000     0.837670000000    -0.0942294  
C398     C      0.814760000000     0.675250000000     0.915410000000     0.0342528  
C399     C      0.811580000000     0.672530000000     0.864850000000     0.052112   
C400     C      0.797140000000     0.653160000000     0.990950000000     0.0777278  
C401     C      0.845550000000     0.701190000000     0.982960000000     0.0786746  
C402     C      0.841360000000     0.700520000000     0.935640000000    -0.0840485  
C403     C      0.883700000000     0.696410000000     0.292710000000     0.17845    
C404     C      0.837500000000     0.645770000000     0.295730000000     0.0850972  
C405     C      0.886430000000     0.696210000000     0.340390000000    -0.113233   
C406     C      0.867680000000     0.699760000000     0.438350000000    -0.0838877  
C407     C      0.839790000000     0.645110000000     0.343210000000    -0.0947439  
C408     C      0.864020000000     0.672590000000     0.416730000000     0.0354175  
C409     C      0.863940000000     0.670900000000     0.366130000000     0.0542214  
C410     C      0.864270000000     0.700060000000     0.485650000000     0.0831976  
C411     C      0.855540000000     0.647880000000     0.491100000000     0.0791448  
C412     C      0.858390000000     0.646620000000     0.443690000000    -0.0851252  
C413     C      0.735790000000     0.646080000000     0.572600000000     0.171554   
C414     C      0.728250000000     0.598220000000     0.605280000000     0.0845446  
C415     C      0.704340000000     0.630350000000     0.557500000000    -0.111489   
C416     C      0.633290000000     0.595460000000     0.546400000000    -0.0846034  
C417     C      0.697030000000     0.582120000000     0.590290000000    -0.0935329  
C418     C      0.651740000000     0.580910000000     0.547960000000     0.0338113  
C419     C      0.684660000000     0.598060000000     0.565870000000     0.0515052  
C420     C      0.602520000000     0.579030000000     0.529350000000     0.0782882  
C421     C      0.607540000000     0.533990000000     0.515430000000     0.0767635  
C422     C      0.638480000000     0.549830000000     0.531840000000    -0.0855736  
C423     C      0.068480000000     0.760980000000     0.741080000000     0.172208   
C424     C      0.060890000000     0.801080000000     0.774390000000     0.0858604  
C425     C      0.037130000000     0.745430000000     0.725630000000    -0.111139   
C426     C      0.966200000000     0.709160000000     0.714210000000    -0.0848161  
C427     C      0.029740000000     0.786130000000     0.759050000000    -0.0922796  
C428     C      0.984520000000     0.742180000000     0.716290000000     0.0353268  
C429     C      0.017420000000     0.757950000000     0.734280000000     0.0515061  
C430     C      0.935520000000     0.694810000000     0.696810000000     0.078439   
C431     C      0.940340000000     0.744880000000     0.683740000000     0.0780566  
C432     C      0.971190000000     0.760000000000     0.700490000000    -0.0849987  
H1       H      0.668140000000     0.918700000000     0.754340000000     0.0279504  
H2       H      0.821420000000     0.065980000000     0.657470000000     0.0265113  
H3       H      0.784290000000     0.982440000000     0.751640000000     0.0551802  
H4       H      0.794920000000     0.012140000000     0.683800000000     0.0573873  
H5       H      0.692840000000     0.971790000000     0.723650000000     0.0573593  
H6       H      0.722590000000     0.025810000000     0.744710000000     0.0789691  
H7       H      0.758910000000     0.929000000000     0.780330000000     0.0301337  
H8       H      0.001220000000     0.410190000000     0.529460000000     0.027619   
H9       H      0.847310000000     0.264010000000     0.627580000000     0.0259511  
H10      H      0.885020000000     0.348310000000     0.534170000000     0.0559234  
H11      H      0.873900000000     0.317820000000     0.601000000000     0.0564372  
H12      H      0.975970000000     0.357290000000     0.560540000000     0.0583066  
H13      H      0.945940000000     0.303700000000     0.540020000000     0.0802727  
H14      H      0.911070000000     0.401770000000     0.505180000000     0.0319923  
H15      H      0.999060000000     0.585850000000     0.417680000000     0.0300439  
H16      H      0.153980000000     0.733400000000     0.323470000000     0.0248223  
H17      H      0.115310000000     0.646770000000     0.412650000000     0.0530981  
H18      H      0.126920000000     0.678920000000     0.347380000000     0.0551428  
H19      H      0.024790000000     0.639260000000     0.388210000000     0.0586136  
H20      H      0.055340000000     0.692360000000     0.411460000000     0.0795127  
H21      H      0.088820000000     0.592950000000     0.440080000000     0.0260022  
H22      H      0.593410000000     0.586280000000     0.922830000000     0.0277076  
H23      H      0.586070000000     0.732600000000     0.824020000000     0.0255727  
H24      H      0.539190000000     0.648340000000     0.917040000000     0.0530012  
H25      H      0.558980000000     0.678790000000     0.850400000000     0.0563793  
H26      H      0.621450000000     0.639480000000     0.892760000000     0.0577323  
H27      H      0.644760000000     0.693170000000     0.913070000000     0.078071   
H28      H      0.511450000000     0.594650000000     0.944990000000     0.0261146  
H29      H      0.259290000000     0.926590000000     0.281120000000     0.028136   
H30      H      0.253040000000     0.080310000000     0.209480000000     0.023882   
H31      H      0.197900000000     0.976470000000     0.232620000000     0.0540404  
H32      H      0.227210000000     0.028710000000     0.243030000000     0.0555085  
H33      H      0.287300000000     0.980380000000     0.253250000000     0.0573421  
H34      H      0.300750000000     0.012950000000     0.191610000000     0.0784707  
H35      H      0.171270000000     0.924110000000     0.264130000000     0.0281489  
H36      H      0.424850000000     0.263090000000     0.120690000000     0.0329936  
H37      H      0.418720000000     0.414050000000     0.040720000000     0.0256906  
H38      H      0.361300000000     0.307730000000     0.060270000000     0.0543592  
H39      H      0.391820000000     0.362310000000     0.074960000000     0.0564917  
H40      H      0.451610000000     0.316280000000     0.090470000000     0.0580874  
H41      H      0.461600000000     0.342730000000     0.019200000000     0.0788859  
H42      H      0.335320000000     0.255110000000     0.092370000000     0.0269955  
H43      H      0.722830000000     0.858600000000     0.450070000000     0.0315321  
H44      H      0.624660000000     0.806800000000     0.669250000000     0.0262189  
H45      H      0.627950000000     0.771410000000     0.521830000000     0.0553773  
H46      H      0.626670000000     0.805700000000     0.587130000000     0.0569446  
H47      H      0.721780000000     0.851680000000     0.532510000000     0.0593137  
H48      H      0.716520000000     0.810290000000     0.594320000000     0.0814121  
H49      H      0.629760000000     0.778570000000     0.439640000000     0.0274058  
H50      H      0.625670000000     0.845270000000     0.939360000000     0.027422   
H51      H      0.624380000000     0.812640000000     0.169770000000     0.026273   
H52      H      0.719350000000     0.870090000000     0.032530000000     0.0606594  
H53      H      0.625270000000     0.815850000000     0.087600000000     0.0575739  
H54      H      0.623380000000     0.850400000000     0.021700000000     0.0552234  
H55      H      0.711240000000     0.905170000000     0.093550000000     0.0819168  
H56      H      0.720850000000     0.864310000000     0.950280000000     0.0334788  
H57      H      0.758740000000     0.837680000000     0.251820000000     0.0317857  
H58      H      0.752300000000     0.680470000000     0.164850000000     0.0251752  
H59      H      0.705380000000     0.721430000000     0.250350000000     0.0536153  
H60      H      0.724000000000     0.705400000000     0.192650000000     0.055684   
H61      H      0.785660000000     0.812950000000     0.218700000000     0.0585379  
H62      H      0.812450000000     0.788270000000     0.226750000000     0.0794805  
H63      H      0.677890000000     0.747500000000     0.278850000000     0.0268037  
H64      H      0.585340000000     0.999530000000     0.413590000000     0.0277425  
H65      H      0.582690000000     0.843460000000     0.335440000000     0.0260792  
H66      H      0.536850000000     0.883880000000     0.425950000000     0.0534304  
H67      H      0.553930000000     0.867980000000     0.363340000000     0.0560231  
H68      H      0.613260000000     0.974770000000     0.383150000000     0.0577766  
H69      H      0.641640000000     0.951030000000     0.398740000000     0.0782941  
H70      H      0.508490000000     0.909480000000     0.453060000000     0.0290369  
H71      H      0.050470000000     0.526260000000     0.612230000000     0.027188   
H72      H      0.952900000000     0.483190000000     0.833410000000     0.028736   
H73      H      0.957740000000     0.522080000000     0.685800000000     0.0541614  
H74      H      0.953420000000     0.488300000000     0.751410000000     0.0571519  
H75      H      0.049820000000     0.530900000000     0.694360000000     0.0577248  
H76      H      0.050050000000     0.563160000000     0.757220000000     0.0793504  
H77      H      0.958930000000     0.517080000000     0.603290000000     0.0267996  
H78      H      0.956600000000     0.438520000000     0.102390000000     0.0320857  
H79      H      0.043100000000     0.484980000000     0.341970000000     0.0261074  
H80      H      0.044670000000     0.515230000000     0.198210000000     0.0539256  
H81      H      0.045410000000     0.482280000000     0.259850000000     0.0573286  
H82      H      0.954230000000     0.430310000000     0.184490000000     0.0591782  
H83      H      0.947220000000     0.454730000000     0.251340000000     0.0795079  
H84      H      0.046620000000     0.522390000000     0.116360000000     0.0274045  
H85      H      0.000560000000     0.593450000000     0.005750000000     0.0294721  
H86      H      0.842050000000     0.589630000000     0.077900000000     0.0240133  
H87      H      0.889010000000     0.532730000000     0.052670000000     0.0538817  
H88      H      0.866850000000     0.562920000000     0.043850000000     0.0559734  
H89      H      0.975300000000     0.621780000000     0.034120000000     0.0581947  
H90      H      0.956650000000     0.634620000000     0.096670000000     0.0789938  
H91      H      0.914260000000     0.505810000000     0.020610000000     0.027622   
H92      H      0.381440000000     0.155070000000     0.015650000000     0.0311835  
H93      H      0.383320000000     0.189660000000     0.785000000000     0.0347194  
H94      H      0.288290000000     0.132290000000     0.922620000000     0.0592032  
H95      H      0.382570000000     0.186340000000     0.867320000000     0.0605144  
H96      H      0.384050000000     0.151310000000     0.933120000000     0.0560842  
H97      H      0.296250000000     0.097340000000     0.861370000000     0.080799   
H98      H      0.286480000000     0.136740000000     0.005140000000     0.0282678  
H99      H      0.372500000000     0.227160000000     0.517010000000     0.0355646  
H100     H      0.288740000000     0.175140000000     0.276370000000     0.0254953  
H101     H      0.285340000000     0.146780000000     0.423690000000     0.0546089  
H102     H      0.284920000000     0.178080000000     0.358300000000     0.0573173  
H103     H      0.374880000000     0.232980000000     0.434550000000     0.0594501  
H104     H      0.382960000000     0.205930000000     0.371230000000     0.0819561  
H105     H      0.283420000000     0.141860000000     0.506160000000     0.0281596  
H106     H      0.494780000000     0.084950000000     0.525080000000     0.0267997  
H107     H      0.339220000000     0.075080000000     0.623530000000     0.0325273  
H108     H      0.378810000000     0.025650000000     0.537620000000     0.0550028  
H109     H      0.365050000000     0.046940000000     0.596990000000     0.0584751  
H110     H      0.468470000000     0.111280000000     0.555600000000     0.0567859  
H111     H      0.438660000000     0.133100000000     0.537550000000     0.0788878  
H112     H      0.406470000000     0.999310000000     0.510530000000     0.0287919  
H113     H      0.080990000000     0.332610000000     0.872520000000     0.0290331  
H114     H      0.088510000000     0.491610000000     0.947620000000     0.0310349  
H115     H      0.129830000000     0.448000000000     0.855100000000     0.0555878  
H116     H      0.115530000000     0.465570000000     0.918710000000     0.0581752  
H117     H      0.054350000000     0.358430000000     0.903950000000     0.0577907  
H118     H      0.026020000000     0.382440000000     0.891220000000     0.0788739  
H119     H      0.156980000000     0.421430000000     0.827120000000     0.0301303  
H120     H      0.256230000000     0.332570000000     0.758470000000     0.0293768  
H121     H      0.246860000000     0.176670000000     0.666720000000     0.0275785  
H122     H      0.201620000000     0.216150000000     0.760700000000     0.0558483  
H123     H      0.220040000000     0.203680000000     0.693380000000     0.0583884  
H124     H      0.283450000000     0.306250000000     0.729560000000     0.0579816  
H125     H      0.306630000000     0.275920000000     0.753020000000     0.0787684  
H126     H      0.174710000000     0.243150000000     0.787730000000     0.0313319  
H127     H      0.442180000000     0.477290000000     0.845080000000     0.0282586  
H128     H      0.493460000000     0.445370000000     0.603820000000     0.0262977  
H129     H      0.522190000000     0.470950000000     0.750310000000     0.0556896  
H130     H      0.491180000000     0.438830000000     0.685800000000     0.0587143  
H131     H      0.435220000000     0.472680000000     0.762940000000     0.0571451  
H132     H      0.459940000000     0.506550000000     0.698900000000     0.0785079  
H133     H      0.528090000000     0.474810000000     0.832630000000     0.0318369  
H134     H      0.480640000000     0.526000000000     0.113550000000     0.0266413  
H135     H      0.534830000000     0.485550000000     0.336580000000     0.0257981  
H136     H      0.569200000000     0.522690000000     0.188710000000     0.0529556  
H137     H      0.540060000000     0.490260000000     0.254800000000     0.0561706  
H138     H      0.486310000000     0.532270000000     0.195440000000     0.0566015  
H139     H      0.518210000000     0.565220000000     0.258000000000     0.0765171  
H140     H      0.562590000000     0.515990000000     0.106360000000     0.0271187  
H141     H      0.815400000000     0.195770000000     0.783230000000     0.0323019  
H142     H      0.859120000000     0.142080000000     0.003110000000     0.0308753  
H143     H      0.898350000000     0.181360000000     0.855960000000     0.0560975  
H144     H      0.862140000000     0.146070000000     0.920890000000     0.0597415  
H145     H      0.821240000000     0.199930000000     0.865770000000     0.0604662  
H146     H      0.862750000000     0.234120000000     0.927990000000     0.0812984  
H147     H      0.892320000000     0.177800000000     0.773360000000     0.0293424  
H148     H      0.773200000000     0.146290000000     0.513130000000     0.0286402  
H149     H      0.822410000000     0.109420000000     0.273360000000     0.0304838  
H150     H      0.850950000000     0.135480000000     0.419150000000     0.0574821  
H151     H      0.819260000000     0.103470000000     0.355390000000     0.0598586  
H152     H      0.766410000000     0.141830000000     0.430770000000     0.0572497  
H153     H      0.792080000000     0.174430000000     0.365480000000     0.0798662  
H154     H      0.856690000000     0.139330000000     0.501340000000     0.0339319  
H155     H      0.139620000000     0.280880000000     0.449730000000     0.0313374  
H156     H      0.181210000000     0.378270000000     0.670180000000     0.0264415  
H157     H      0.140840000000     0.371900000000     0.524650000000     0.0551251  
H158     H      0.175150000000     0.377000000000     0.588590000000     0.056768   
H159     H      0.133990000000     0.280510000000     0.531890000000     0.0592426  
H160     H      0.102240000000     0.279500000000     0.596250000000     0.0798847  
H161     H      0.147000000000     0.371830000000     0.442410000000     0.0310317  
H162     H      0.193410000000     0.383810000000     0.171820000000     0.0281028  
H163     H      0.153870000000     0.286730000000     0.951510000000     0.0259452  
H164     H      0.194600000000     0.293820000000     0.097460000000     0.0531791  
H165     H      0.159910000000     0.287970000000     0.033170000000     0.0557497  
H166     H      0.199060000000     0.384120000000     0.089710000000     0.0572573  
H167     H      0.231650000000     0.385910000000     0.025810000000     0.0770657  
H168     H      0.188460000000     0.293960000000     0.179760000000     0.0281976  
H169     H      0.927170000000     0.258210000000     0.177710000000     0.0348393  
H170     H      0.081210000000     0.251980000000     0.244620000000     0.0243341  
H171     H      0.977290000000     0.197020000000     0.226210000000     0.0539933  
H172     H      0.029340000000     0.226480000000     0.212210000000     0.0552754  
H173     H      0.981100000000     0.286410000000     0.205030000000     0.0592605  
H174     H      0.014320000000     0.299840000000     0.266630000000     0.079183   
H175     H      0.924760000000     0.170170000000     0.195550000000     0.0275859  
H176     H      0.415460000000     0.414130000000     0.413420000000     0.0277432  
H177     H      0.263640000000     0.420370000000     0.336870000000     0.0260644  
H178     H      0.349210000000     0.463470000000     0.427430000000     0.0554566  
H179     H      0.316950000000     0.447780000000     0.364420000000     0.0562676  
H180     H      0.362580000000     0.386610000000     0.383130000000     0.0565399  
H181     H      0.310070000000     0.358650000000     0.397480000000     0.0775944  
H182     H      0.403060000000     0.491250000000     0.454360000000     0.0358216  
H183     H      0.477960000000     0.949430000000     0.615910000000     0.0274173  
H184     H      0.531040000000     0.047620000000     0.835170000000     0.0259173  
H185     H      0.566380000000     0.043640000000     0.687090000000     0.0551846  
H186     H      0.535880000000     0.047210000000     0.753180000000     0.056534   
H187     H      0.484340000000     0.950790000000     0.697860000000     0.0574633  
H188     H      0.518660000000     0.952000000000     0.759570000000     0.0776387  
H189     H      0.559240000000     0.041680000000     0.604640000000     0.0266641  
H190     H      0.472100000000     0.950510000000     0.115500000000     0.0277876  
H191     H      0.516860000000     0.047570000000     0.336340000000     0.0268333  
H192     H      0.479910000000     0.045400000000     0.187610000000     0.0560684  
H193     H      0.512300000000     0.047840000000     0.254370000000     0.0572334  
H194     H      0.466620000000     0.951440000000     0.197370000000     0.0572921  
H195     H      0.433890000000     0.952870000000     0.258820000000     0.0775907  
H196     H      0.485660000000     0.043880000000     0.105220000000     0.0277494  
H197     H      0.587550000000     0.999070000000     0.036180000000     0.0290193  
H198     H      0.738110000000     0.157030000000     0.115180000000     0.0342944  
H199     H      0.653080000000     0.114800000000     0.022530000000     0.0544828  
H200     H      0.685080000000     0.131250000000     0.086340000000     0.0579586  
H201     H      0.640260000000     0.024750000000     0.066810000000     0.0584154  
H202     H      0.692750000000     0.049640000000     0.052110000000     0.0794426  
H203     H      0.599250000000     0.088320000000     0.995100000000     0.0264413  
H204     H      0.147420000000     0.862120000000     0.454650000000     0.0330689  
H205     H      0.191410000000     0.808170000000     0.674240000000     0.0349447  
H206     H      0.230120000000     0.846780000000     0.526290000000     0.0552141  
H207     H      0.193480000000     0.811540000000     0.591900000000     0.061202   
H208     H      0.153590000000     0.866130000000     0.537260000000     0.0612477  
H209     H      0.196900000000     0.900930000000     0.598640000000     0.0796504  
H210     H      0.223860000000     0.843490000000     0.443770000000     0.0274882  
H211     H      0.105860000000     0.815000000000     0.183520000000     0.0323146  
H212     H      0.152040000000     0.775680000000     0.943590000000     0.0376205  
H213     H      0.183340000000     0.804570000000     0.088310000000     0.0576419  
H214     H      0.149940000000     0.770850000000     0.025800000000     0.0604536  
H215     H      0.098470000000     0.810160000000     0.101270000000     0.0604001  
H216     H      0.124080000000     0.842790000000     0.035060000000     0.0801695  
H217     H      0.189850000000     0.809030000000     0.170490000000     0.0274112  
H218     H      0.410070000000     0.911790000000     0.926630000000     0.0338637  
H219     H      0.262570000000     0.921930000000     0.835940000000     0.0340433  
H220     H      0.352900000000     0.970870000000     0.918120000000     0.0558945  
H221     H      0.316940000000     0.949740000000     0.860240000000     0.0592684  
H222     H      0.356800000000     0.885250000000     0.898240000000     0.0584452  
H223     H      0.305330000000     0.863310000000     0.917510000000     0.0782032  
H224     H      0.407290000000     0.997310000000     0.943010000000     0.0277878  
H225     H      0.779310000000     0.634150000000     0.011490000000     0.0267434  
H226     H      0.827230000000     0.718030000000     0.770700000000     0.0291826  
H227     H      0.859480000000     0.719110000000     0.914950000000     0.0564355  
H228     H      0.826860000000     0.721780000000     0.853010000000     0.0599485  
H229     H      0.771000000000     0.632140000000     0.929680000000     0.0564652  
H230     H      0.793970000000     0.622330000000     0.863530000000     0.0782889  
H231     H      0.866850000000     0.720770000000     0.997050000000     0.0322038  
H232     H      0.866420000000     0.721300000000     0.500780000000     0.0339006  
H233     H      0.817830000000     0.625410000000     0.279840000000     0.026657   
H234     H      0.855740000000     0.625310000000     0.428190000000     0.0553585  
H235     H      0.821860000000     0.625020000000     0.361970000000     0.0578558  
H236     H      0.871850000000     0.720270000000     0.418670000000     0.0623235  
H237     H      0.905650000000     0.716380000000     0.357340000000     0.0822225  
H238     H      0.850570000000     0.627050000000     0.510660000000     0.0271629  
H239     H      0.589080000000     0.591180000000     0.529160000000     0.0310368  
H240     H      0.736440000000     0.584750000000     0.624600000000     0.0323227  
H241     H      0.651970000000     0.537770000000     0.531350000000     0.0533613  
H242     H      0.682610000000     0.557260000000     0.598350000000     0.0575054  
H243     H      0.642310000000     0.619290000000     0.558950000000     0.0588555  
H244     H      0.695920000000     0.643130000000     0.537060000000     0.0788765  
H245     H      0.598290000000     0.509960000000     0.503490000000     0.0261291  
H246     H      0.922200000000     0.669210000000     0.696140000000     0.0290621  
H247     H      0.069050000000     0.822570000000     0.794110000000     0.0349446  
H248     H      0.984570000000     0.785560000000     0.700430000000     0.056168   
H249     H      0.015320000000     0.796540000000     0.767220000000     0.0589929  
H250     H      0.975270000000     0.694340000000     0.726550000000     0.0583095  
H251     H      0.028800000000     0.724440000000     0.704760000000     0.079161   
H252     H      0.931050000000     0.759680000000     0.672000000000     0.0285786  
N1       N      0.787500000000     0.077300000000     0.684860000000    -0.215198   
N2       N      0.711640000000     0.919790000000     0.769320000000    -0.205843   
N3       N      0.747590000000     0.085650000000     0.723900000000    -0.0321307  
N4       N      0.881170000000     0.252560000000     0.600330000000    -0.215021   
N5       N      0.958070000000     0.410010000000     0.515210000000    -0.205603   
N6       N      0.920910000000     0.243960000000     0.561270000000    -0.0322279  
N7       N      0.120350000000     0.744530000000     0.352430000000    -0.214723   
N8       N      0.041960000000     0.585350000000     0.431000000000    -0.205735   
N9       N      0.080990000000     0.752630000000     0.393660000000    -0.0321745  
N10      N      0.631210000000     0.744260000000     0.852180000000    -0.214608   
N11      N      0.550270000000     0.586380000000     0.935840000000    -0.206364   
N12      N      0.679340000000     0.752970000000     0.891980000000    -0.0318656  
N13      N      0.292570000000     0.077590000000     0.183130000000    -0.215066   
N14      N      0.213250000000     0.921350000000     0.274730000000    -0.205752   
N15      N      0.333400000000     0.067850000000     0.150910000000    -0.0324133  
N16      N      0.456400000000     0.409190000000     0.011580000000    -0.215021   
N17      N      0.378100000000     0.254980000000     0.108350000000    -0.205046   
N18      N      0.493710000000     0.396150000000     0.974580000000    -0.0322246  
N19      N      0.669740000000     0.810120000000     0.680390000000    -0.213983   
N20      N      0.676180000000     0.819510000000     0.438790000000    -0.205238   
N21      N      0.718350000000     0.806730000000     0.684190000000    -0.031701   
N22      N      0.667700000000     0.856490000000     0.180210000000    -0.214033   
N23      N      0.673200000000     0.853800000000     0.938790000000    -0.204632   
N24      N      0.713600000000     0.910490000000     0.183440000000    -0.0321834  
N25      N      0.798550000000     0.720060000000     0.177170000000    -0.214798   
N26      N      0.716330000000     0.794430000000     0.267800000000    -0.205969   
N27      N      0.848680000000     0.769110000000     0.192290000000    -0.0317548  
N28      N      0.628810000000     0.883020000000     0.349070000000    -0.214187   
N29      N      0.544810000000     0.956380000000     0.435520000000    -0.205765   
N30      N      0.678590000000     0.932550000000     0.364320000000    -0.0322175  
N31      N      0.001360000000     0.519180000000     0.843320000000    -0.214421   
N32      N      0.004480000000     0.520650000000     0.601710000000    -0.206434   
N33      N      0.057610000000     0.560540000000     0.844980000000    -0.0314367  
N34      N      0.994270000000     0.472450000000     0.344620000000    -0.214867   
N35      N      0.001490000000     0.481340000000     0.103330000000    -0.205814   
N36      N      0.936660000000     0.450140000000     0.340160000000    -0.0318933  
N37      N      0.884740000000     0.628380000000     0.104630000000    -0.215843   
N38      N      0.959360000000     0.547580000000     0.011170000000    -0.20611    
N39      N      0.935490000000     0.667980000000     0.138010000000    -0.0331925  
N40      N      0.339830000000     0.145990000000     0.774740000000    -0.212859   
N41      N      0.333970000000     0.146760000000     0.016480000000    -0.204432   
N42      N      0.293990000000     0.091980000000     0.771450000000    -0.0314945  
N43      N      0.337710000000     0.188070000000     0.275870000000    -0.214499   
N44      N      0.328160000000     0.183690000000     0.517700000000    -0.203972   
N45      N      0.395110000000     0.209770000000     0.283030000000    -0.0319049  
N46      N      0.374630000000     0.120330000000     0.598450000000    -0.215073   
N47      N      0.452600000000     0.040190000000     0.515450000000    -0.206373   
N48      N      0.415200000000     0.168710000000     0.560520000000    -0.0325998  
N49      N      0.041680000000     0.452250000000     0.937760000000    -0.213508   
N50      N      0.121050000000     0.375080000000     0.847750000000    -0.205367   
N51      N      0.991110000000     0.402370000000     0.929040000000    -0.0310514  
N52      N      0.292370000000     0.210680000000     0.693140000000    -0.214729   
N53      N      0.213380000000     0.289860000000     0.774970000000    -0.20522    
N54      N      0.340820000000     0.250190000000     0.732290000000    -0.0319164  
N55      N      0.478830000000     0.480200000000     0.603550000000    -0.215201   
N56      N      0.486020000000     0.477140000000     0.844890000000    -0.205248   
N57      N      0.454770000000     0.513890000000     0.610760000000    -0.0318261  
N58      N      0.522070000000     0.521490000000     0.345300000000    -0.214838   
N59      N      0.520810000000     0.519890000000     0.103930000000    -0.206458   
N60      N      0.507510000000     0.563110000000     0.345730000000    -0.0313415  
N61      N      0.858240000000     0.185210000000     0.013950000000    -0.213518   
N62      N      0.853040000000     0.185920000000     0.772210000000    -0.204569   
N63      N      0.864970000000     0.238680000000     0.017930000000    -0.0312885  
N64      N      0.809960000000     0.145840000000     0.271460000000    -0.213784   
N65      N      0.815760000000     0.143760000000     0.513350000000    -0.204526   
N66      N      0.788160000000     0.181600000000     0.276890000000    -0.0319242  
N67      N      0.146310000000     0.329480000000     0.681170000000    -0.215107   
N68      N      0.144540000000     0.326710000000     0.440090000000    -0.205156   
N69      N      0.106380000000     0.272780000000     0.684230000000    -0.0317589  
N70      N      0.188190000000     0.335720000000     0.940720000000    -0.215178   
N71      N      0.189760000000     0.338530000000     0.181780000000    -0.206332   
N72      N      0.227440000000     0.392640000000     0.937880000000    -0.0315651  
N73      N      0.078820000000     0.291330000000     0.272720000000    -0.215251   
N74      N      0.922010000000     0.212160000000     0.184390000000    -0.205016   
N75      N      0.069510000000     0.332080000000     0.306600000000    -0.032535   
N76      N      0.255820000000     0.373620000000     0.349520000000    -0.214263   
N77      N      0.413290000000     0.454810000000     0.435840000000    -0.204459   
N78      N      0.254110000000     0.322960000000     0.363490000000    -0.0310754  
N79      N      0.520770000000     0.999780000000     0.845320000000    -0.214992   
N80      N      0.517730000000     0.995690000000     0.604250000000    -0.206791   
N81      N      0.508650000000     0.944290000000     0.847380000000    -0.0311673  
N82      N      0.479140000000     0.999710000000     0.345580000000    -0.21486    
N83      N      0.479890000000     0.997340000000     0.104340000000    -0.206515   
N84      N      0.434990000000     0.944650000000     0.346660000000    -0.0311077  
N85      N      0.746250000000     0.118370000000     0.102050000000    -0.212905   
N86      N      0.589380000000     0.041760000000     0.013600000000    -0.205942   
N87      N      0.748260000000     0.069630000000     0.087500000000    -0.0316105  
N88      N      0.192020000000     0.852060000000     0.684910000000    -0.212674   
N89      N      0.184840000000     0.852050000000     0.443090000000    -0.204434   
N90      N      0.200600000000     0.906250000000     0.688560000000    -0.0314024  
N91      N      0.140440000000     0.812700000000     0.941260000000    -0.212698   
N92      N      0.148690000000     0.812940000000     0.183120000000    -0.205325   
N93      N      0.119450000000     0.849140000000     0.946270000000    -0.0317634  
N94      N      0.252980000000     0.876520000000     0.860150000000    -0.214328   
N95      N      0.412650000000     0.956500000000     0.936990000000    -0.205368   
N96      N      0.245790000000     0.827960000000     0.896780000000    -0.0323691  
N97      N      0.811800000000     0.668400000000     0.769120000000    -0.214673   
N98      N      0.823980000000     0.677290000000     0.010300000000    -0.2056     
N99      N      0.786840000000     0.610490000000     0.775050000000    -0.0319101  
N100     N      0.858600000000     0.671470000000     0.270410000000    -0.213811   
N101     N      0.857510000000     0.674060000000     0.511750000000    -0.20517    
N102     N      0.906790000000     0.723950000000     0.268950000000    -0.0323411  
N103     N      0.747540000000     0.629950000000     0.597100000000    -0.213888   
N104     N      0.589610000000     0.548410000000     0.514340000000    -0.20578    
N105     N      0.755700000000     0.678080000000     0.557670000000    -0.0322587  
N106     N      0.080090000000     0.788550000000     0.766290000000    -0.213661   
N107     N      0.922580000000     0.712520000000     0.681980000000    -0.205897   
N108     N      0.088500000000     0.749100000000     0.725820000000    -0.0319444  
O1       O      0.845490000000     0.649630000000     0.582090000000    -0.55525    
O2       O      0.820610000000     0.645820000000     0.705870000000    -0.538035   
O3       O      0.790330000000     0.627750000000     0.625280000000    -0.551073   
O4       O      0.875970000000     0.667800000000     0.663060000000    -0.554043   
O5       O      0.879440000000     0.714850000000     0.655870000000    -0.556618   
O6       O      0.793950000000     0.674770000000     0.617380000000    -0.533464   
O7       O      0.824020000000     0.692780000000     0.698650000000    -0.554481   
O8       O      0.849440000000     0.696910000000     0.575110000000    -0.549862   
O9       O      0.182410000000     0.821220000000     0.749330000000    -0.547834   
O10      O      0.152830000000     0.799700000000     0.871510000000    -0.546153   
O11      O      0.125540000000     0.788920000000     0.788260000000    -0.535948   
O12      O      0.209590000000     0.831810000000     0.832710000000    -0.538264   
O13      O      0.208260000000     0.876690000000     0.836000000000    -0.546752   
O14      O      0.122890000000     0.832850000000     0.796160000000    -0.547266   
O15      O      0.152070000000     0.844700000000     0.877810000000    -0.534799   
O16      O      0.178800000000     0.864690000000     0.754440000000    -0.534787   
O17      O      0.511840000000     0.977550000000     0.917300000000    -0.539726   
O18      O      0.487400000000     0.974220000000     0.040890000000    -0.560847   
O19      O      0.456850000000     0.955270000000     0.960480000000    -0.552531   
O20      O      0.542540000000     0.996580000000     0.997680000000    -0.556364   
O21      O      0.545880000000     0.043350000000     0.987100000000    -0.552525   
O22      O      0.458920000000     0.001790000000     0.955300000000    -0.550979   
O23      O      0.491820000000     0.021700000000     0.033890000000    -0.552365   
O24      O      0.512990000000     0.023310000000     0.908520000000    -0.554233   
O25      O      0.153050000000     0.305550000000     0.375090000000    -0.553205   
O26      O      0.178290000000     0.312750000000     0.250980000000    -0.555315   
O27      O      0.208410000000     0.328980000000     0.331970000000    -0.537109   
O28      O      0.122970000000     0.289340000000     0.294080000000    -0.559448   
O29      O      0.125420000000     0.336110000000     0.292100000000    -0.53414    
O30      O      0.212030000000     0.376010000000     0.325750000000    -0.555194   
O31      O      0.180180000000     0.359190000000     0.246390000000    -0.556269   
O32      O      0.157310000000     0.353090000000     0.371380000000    -0.550065   
O33      O      0.849590000000     0.154490000000     0.078210000000    -0.552976   
O34      O      0.822650000000     0.133410000000     0.201500000000    -0.551049   
O35      O      0.793660000000     0.121210000000     0.119650000000    -0.535326   
O36      O      0.878490000000     0.166490000000     0.160090000000    -0.558306   
O37      O      0.875790000000     0.210650000000     0.163740000000    -0.544608   
O38      O      0.789510000000     0.164170000000     0.128090000000    -0.545873   
O39      O      0.820590000000     0.177700000000     0.208070000000    -0.535488   
O40      O      0.844500000000     0.197100000000     0.083660000000    -0.534948   
O41      O      0.515180000000     0.490740000000     0.408700000000    -0.558059   
O42      O      0.491390000000     0.469000000000     0.532660000000    -0.555968   
O43      O      0.460360000000     0.457030000000     0.452350000000    -0.552807   
O44      O      0.546350000000     0.502830000000     0.488620000000    -0.555307   
O45      O      0.542680000000     0.546220000000     0.496940000000    -0.553427   
O46      O      0.456530000000     0.500260000000     0.461780000000    -0.544594   
O47      O      0.487930000000     0.512430000000     0.541150000000    -0.538925   
O48      O      0.511200000000     0.533840000000     0.416940000000    -0.536252   
O49      O      0.177750000000     0.354990000000     0.743190000000    -0.559507   
O50      O      0.199900000000     0.356900000000     0.867860000000    -0.53607    
O51      O      0.211660000000     0.335260000000     0.789720000000    -0.552671   
O52      O      0.166020000000     0.376680000000     0.820890000000    -0.548495   
O53      O      0.122990000000     0.329900000000     0.832840000000    -0.555245   
O54      O      0.168300000000     0.288560000000     0.800430000000    -0.551782   
O55      O      0.156950000000     0.310060000000     0.878590000000    -0.56031    
O56      O      0.134400000000     0.308490000000     0.754150000000    -0.53624    
O57      O      0.360910000000     0.176600000000     0.710120000000    -0.548593   
O58      O      0.352840000000     0.197770000000     0.587770000000    -0.546427   
O59      O      0.336910000000     0.209390000000     0.670920000000    -0.538615   
O60      O      0.376820000000     0.165230000000     0.626790000000    -0.540081   
O61      O      0.330340000000     0.120690000000     0.624060000000    -0.547906   
O62      O      0.290020000000     0.165860000000     0.663540000000    -0.552551   
O63      O      0.306750000000     0.153020000000     0.581880000000    -0.553783   
O64      O      0.313540000000     0.133530000000     0.705550000000    -0.533713   
O65      O      0.023900000000     0.531850000000     0.915150000000    -0.536769   
O66      O      0.024810000000     0.512430000000     0.040290000000    -0.557848   
O67      O      0.044180000000     0.498400000000     0.962310000000    -0.547942   
O68      O      0.004210000000     0.545670000000     0.993110000000    -0.550833   
O69      O      0.957270000000     0.501910000000     0.986880000000    -0.559023   
O70      O      0.997140000000     0.455660000000     0.952650000000    -0.536574   
O71      O      0.978170000000     0.468560000000     0.032170000000    -0.549189   
O72      O      0.976550000000     0.489200000000     0.907190000000    -0.552449   
O73      O      0.692440000000     0.870160000000     0.250760000000    -0.532423   
O74      O      0.698400000000     0.850270000000     0.374780000000    -0.551266   
O75      O      0.716610000000     0.838930000000     0.293260000000    -0.558128   
O76      O      0.674310000000     0.881850000000     0.332030000000    -0.535307   
O77      O      0.628070000000     0.837890000000     0.323700000000    -0.553015   
O78      O      0.670670000000     0.793830000000     0.289090000000    -0.549982   
O79      O      0.651550000000     0.806430000000     0.368740000000    -0.554725   
O80      O      0.646830000000     0.825240000000     0.244160000000    -0.555857   
O81      O      0.873140000000     0.694870000000     0.199210000000    -0.528734   
O82      O      0.855190000000     0.699040000000     0.073990000000    -0.553197   
O83      O      0.843140000000     0.719180000000     0.153420000000    -0.534053   
O84      O      0.885360000000     0.674720000000     0.120780000000    -0.537982   
O85      O      0.840040000000     0.629170000000     0.126710000000    -0.555176   
O86      O      0.797890000000     0.673800000000     0.159400000000    -0.555234   
O87      O      0.809950000000     0.653510000000     0.080840000000    -0.556857   
O88      O      0.828050000000     0.649450000000     0.206030000000    -0.554124   
O89      O      0.530660000000     0.019610000000     0.533550000000    -0.555685   
O90      O      0.509640000000     0.023140000000     0.409480000000    -0.556462   
O91      O      0.497780000000     0.041750000000     0.490270000000    -0.558494   
O92      O      0.542700000000     0.001130000000     0.452790000000    -0.557484   
O93      O      0.499370000000     0.954140000000     0.461810000000    -0.548696   
O94      O      0.453680000000     0.995050000000     0.496110000000    -0.551715   
O95      O      0.466530000000     0.976030000000     0.416750000000    -0.537106   
O96      O      0.486540000000     0.973090000000     0.541110000000    -0.559019   
O97      O      0.313930000000     0.176990000000     0.204980000000    -0.555248   
O98      O      0.310380000000     0.153280000000     0.080450000000    -0.552296   
O99      O      0.291480000000     0.122110000000     0.160700000000    -0.556517   
O100     O      0.332850000000     0.208250000000     0.124890000000    -0.554158   
O101     O      0.379480000000     0.211210000000     0.134240000000    -0.54948    
O102     O      0.337910000000     0.124120000000     0.165590000000    -0.533745   
O103     O      0.357680000000     0.157380000000     0.087260000000    -0.548836   
O104     O      0.359850000000     0.178330000000     0.212720000000    -0.534683   
O105     O      0.490700000000     0.511300000000     0.039540000000    -0.55923    
O106     O      0.472260000000     0.487790000000     0.915040000000    -0.555986   
O107     O      0.458630000000     0.456360000000     0.995000000000    -0.555651   
O108     O      0.504440000000     0.542670000000     0.959830000000    -0.556306   
O109     O      0.548330000000     0.539690000000     0.954450000000    -0.556424   
O110     O      0.502350000000     0.453270000000     0.988530000000    -0.536986   
O111     O      0.516320000000     0.485170000000     0.909130000000    -0.548354   
O112     O      0.534360000000     0.507900000000     0.034350000000    -0.553304   
O113     O      0.155080000000     0.846230000000     0.378910000000    -0.545881   
O114     O      0.135100000000     0.822760000000     0.254160000000    -0.551234   
O115     O      0.122310000000     0.791440000000     0.334480000000    -0.535318   
O116     O      0.167700000000     0.877440000000     0.298560000000    -0.557189   
O117     O      0.211870000000     0.874900000000     0.293750000000    -0.55072    
O118     O      0.165570000000     0.787800000000     0.325480000000    -0.553757   
O119     O      0.179430000000     0.820800000000     0.246780000000    -0.554231   
O120     O      0.197980000000     0.841600000000     0.372280000000    -0.553617   
O121     O      0.979430000000     0.509070000000     0.531870000000    -0.55558    
O122     O      0.973480000000     0.483260000000     0.408190000000    -0.537399   
O123     O      0.956130000000     0.453430000000     0.489090000000    -0.549693   
O124     O      0.996960000000     0.539110000000     0.450510000000    -0.552408   
O125     O      0.043610000000     0.541670000000     0.456500000000    -0.556704   
O126     O      0.002860000000     0.456210000000     0.495450000000    -0.55546    
O127     O      0.020050000000     0.485790000000     0.414040000000    -0.55666    
O128     O      0.026240000000     0.511940000000     0.537590000000    -0.557107   
O129     O      0.822910000000     0.179140000000     0.708230000000    -0.547589   
O130     O      0.802590000000     0.154750000000     0.583920000000    -0.551765   
O131     O      0.789610000000     0.124020000000     0.664870000000    -0.536013   
O132     O      0.835860000000     0.209810000000     0.627710000000    -0.557001   
O133     O      0.879180000000     0.206000000000     0.621010000000    -0.535698   
O134     O      0.832790000000     0.120050000000     0.657410000000    -0.557944   
O135     O      0.846070000000     0.151140000000     0.577240000000    -0.549386   
O136     O      0.865970000000     0.174800000000     0.701650000000    -0.553648   
O137     O      0.649210000000     0.841670000000     0.868120000000    -0.553324   
O138     O      0.646420000000     0.817520000000     0.744070000000    -0.556925   
O139     O      0.628390000000     0.786800000000     0.824350000000    -0.556972   
O140     O      0.667300000000     0.872630000000     0.787460000000    -0.554453   
O141     O      0.714630000000     0.876980000000     0.795400000000    -0.555211   
O142     O      0.675650000000     0.791150000000     0.832350000000    -0.531218   
O143     O      0.693760000000     0.822130000000     0.751500000000    -0.533588   
O144     O      0.696680000000     0.846270000000     0.875640000000    -0.548535   
O145     O      0.764990000000     0.110020000000     0.749570000000    -0.100104   
O146     O      0.717620000000     0.075950000000     0.720140000000    -0.107748   
O147     O      0.950880000000     0.253640000000     0.564810000000    -0.103417   
O148     O      0.903360000000     0.219440000000     0.535950000000    -0.0990421  
O149     O      0.098830000000     0.776550000000     0.419810000000    -0.0984135  
O150     O      0.051060000000     0.743310000000     0.390780000000    -0.101692   
O151     O      0.699760000000     0.743410000000     0.888710000000    -0.102434   
O152     O      0.686040000000     0.777390000000     0.917390000000    -0.0996208  
O153     O      0.334730000000     0.078440000000     0.109660000000    -0.0982442  
O154     O      0.354430000000     0.060510000000     0.163590000000    -0.105896   
O155     O      0.493090000000     0.405400000000     0.933050000000    -0.0977051  
O156     O      0.514620000000     0.388180000000     0.985210000000    -0.107819   
O157     O      0.747890000000     0.823730000000     0.672670000000    -0.104288   
O158     O      0.710000000000     0.783080000000     0.712050000000    -0.0899667  
O159     O      0.703760000000     0.924220000000     0.211800000000    -0.0832885  
O160     O      0.743110000000     0.925180000000     0.171230000000    -0.101969   
O161     O      0.864040000000     0.779720000000     0.230480000000    -0.0910578  
O162     O      0.862980000000     0.781510000000     0.153920000000    -0.0917987  
O163     O      0.694230000000     0.944430000000     0.401990000000    -0.105253   
O164     O      0.692590000000     0.943640000000     0.325310000000    -0.0860559  
O165     O      0.071870000000     0.591180000000     0.842300000000    -0.103552   
O166     O      0.073290000000     0.547160000000     0.859330000000    -0.100989   
O167     O      0.927870000000     0.428900000000     0.372200000000    -0.096884   
O168     O      0.915860000000     0.456120000000     0.322220000000    -0.106944   
O169     O      0.964270000000     0.688410000000     0.126270000000    -0.100238   
O170     O      0.925800000000     0.669480000000     0.178880000000    -0.0871118  
O171     O      0.264630000000     0.076550000000     0.784410000000    -0.103584   
O172     O      0.303890000000     0.079140000000     0.741640000000    -0.0957496  
O173     O      0.415090000000     0.203000000000     0.301910000000    -0.103387   
O174     O      0.405080000000     0.231600000000     0.251740000000    -0.0983687  
O175     O      0.397460000000     0.177130000000     0.538540000000    -0.100749   
O176     O      0.445490000000     0.188060000000     0.562070000000    -0.106436   
O177     O      0.979300000000     0.395190000000     0.970050000000    -0.0948808  
O178     O      0.973460000000     0.386980000000     0.894340000000    -0.104372   
O179     O      0.347720000000     0.232220000000     0.756750000000    -0.100043   
O180     O      0.361190000000     0.280230000000     0.729500000000    -0.105996   
O181     O      0.460080000000     0.540170000000     0.629750000000    -0.107703   
O182     O      0.433280000000     0.501330000000     0.579110000000    -0.0987247  
O183     O      0.478390000000     0.549910000000     0.359610000000    -0.101444   
O184     O      0.523950000000     0.593730000000     0.342750000000    -0.108169   
O185     O      0.850150000000     0.253350000000     0.005340000000    -0.10361    
O186     O      0.887810000000     0.252090000000     0.047470000000    -0.0944429  
O187     O      0.794560000000     0.208410000000     0.295230000000    -0.104158   
O188     O      0.766760000000     0.169560000000     0.245060000000    -0.0962312  
O189     O      0.121150000000     0.258870000000     0.700200000000    -0.101279   
O190     O      0.075790000000     0.256770000000     0.680810000000    -0.104299   
O191     O      0.258010000000     0.409040000000     0.941310000000    -0.108586   
O192     O      0.212310000000     0.406210000000     0.922020000000    -0.101827   
O193     O      0.079770000000     0.332740000000     0.347880000000    -0.0983996  
O194     O      0.062550000000     0.353500000000     0.294510000000    -0.107189   
O195     O      0.250180000000     0.306970000000     0.400870000000    -0.107565   
O196     O      0.250570000000     0.309060000000     0.324230000000    -0.101543   
O197     O      0.526190000000     0.931280000000     0.844910000000    -0.107559   
O198     O      0.479700000000     0.927500000000     0.861650000000    -0.103712   
O199     O      0.445810000000     0.926260000000     0.358930000000    -0.103153   
O200     O      0.404640000000     0.933370000000     0.345550000000    -0.108075   
O201     O      0.752460000000     0.057750000000     0.050160000000    -0.103395   
O202     O      0.751550000000     0.059120000000     0.126790000000    -0.0916056  
O203     O      0.186800000000     0.921910000000     0.675980000000    -0.103313   
O204     O      0.223530000000     0.918910000000     0.718090000000    -0.0951944  
O205     O      0.125930000000     0.876020000000     0.964470000000    -0.103296   
O206     O      0.098270000000     0.837240000000     0.914120000000    -0.0966231  
O207     O      0.220000000000     0.819520000000     0.919710000000    -0.102706   
O208     O      0.256640000000     0.808540000000     0.894120000000    -0.106608   
O209     O      0.765470000000     0.602540000000     0.743410000000    -0.0991909  
O210     O      0.791340000000     0.588760000000     0.793230000000    -0.108992   
O211     O      0.936100000000     0.730730000000     0.268940000000    -0.0879519  
O212     O      0.900050000000     0.745560000000     0.257100000000    -0.0803172  
O213     O      0.745860000000     0.698300000000     0.561020000000    -0.102281   
O214     O      0.780200000000     0.685090000000     0.532320000000    -0.0993616  
O215     O      0.113540000000     0.767170000000     0.701790000000    -0.0988851  
O216     O      0.078480000000     0.718950000000     0.727640000000    -0.103759   
V1       V      0.832990000000     0.645900000000     0.644380000000     1.41126    
V2       V      0.836830000000     0.696680000000     0.636510000000     1.41897    
V3       V      0.167680000000     0.808660000000     0.810200000000     1.42271    
V4       V      0.165440000000     0.856510000000     0.816370000000     1.42252    
V5       V      0.499570000000     0.974090000000     0.979420000000     1.43063    
V6       V      0.502530000000     0.024430000000     0.970870000000     1.38803    
V7       V      0.165560000000     0.307300000000     0.313200000000     1.4223     
V8       V      0.168870000000     0.357980000000     0.308730000000     1.40505    
V9       V      0.836240000000     0.142190000000     0.139600000000     1.41889    
V10      V      0.832480000000     0.189160000000     0.146140000000     1.41764    
V11      V      0.503480000000     0.478180000000     0.470290000000     1.39816    
V12      V      0.499490000000     0.524930000000     0.479500000000     1.42927    
V13      V      0.190560000000     0.357810000000     0.805000000000     1.41265    
V14      V      0.143940000000     0.307410000000     0.816890000000     1.41983    
V15      V      0.358700000000     0.188990000000     0.649160000000     1.42794    
V16      V      0.308290000000     0.141530000000     0.643550000000     1.40805    
V17      V      0.026130000000     0.523820000000     0.978030000000     1.41077    
V18      V      0.975410000000     0.477140000000     0.969380000000     1.41896    
V19      V      0.697250000000     0.862050000000     0.313020000000     1.43534    
V20      V      0.647450000000     0.814050000000     0.306180000000     1.38931    
V21      V      0.865970000000     0.698750000000     0.136470000000     1.44424    
V22      V      0.817200000000     0.649660000000     0.143570000000     1.39273    
V23      V      0.521920000000     0.023260000000     0.471210000000     1.40619    
V24      V      0.474780000000     0.972720000000     0.479240000000     1.4145     
V25      V      0.310310000000     0.165040000000     0.142460000000     1.39766    
V26      V      0.360550000000     0.167830000000     0.150310000000     1.42221    
V27      V      0.479770000000     0.499640000000     0.977580000000     1.40661    
V28      V      0.527090000000     0.496390000000     0.971450000000     1.41094    
V29      V      0.143330000000     0.834590000000     0.316810000000     1.41937    
V30      V      0.190460000000     0.831160000000     0.309240000000     1.39397    
V31      V      0.974670000000     0.496160000000     0.469680000000     1.41334    
V32      V      0.025040000000     0.499020000000     0.476090000000     1.4037     
V33      V      0.811010000000     0.167060000000     0.646420000000     1.40963    
V34      V      0.857730000000     0.162870000000     0.639100000000     1.41822    
V35      V      0.645970000000     0.829510000000     0.805690000000     1.399      
V36      V      0.697040000000     0.834260000000     0.813980000000     1.42731    


