data_structure

_audit_creation_method RASPA-1.0
_audit_creation_date 2023-6-5
_audit_author_name 'Poobodin Mano'

_cell_length_a    48.8493
_cell_length_b    48.5861
_cell_length_c    29.4009
_cell_angle_alpha 89.9832
_cell_angle_beta  90.0167
_cell_angle_gamma 119.977
_cell_volume      60445.3

_symmetry_cell_setting          triclinic
_symmetry_space_group_name_Hall 'P 1'
_symmetry_space_group_name_H-M  'P 1'
_symmetry_Int_Tables_number     1

_symmetry_equiv_pos_as_xyz 'x,y,z'

loop_
_atom_site_label
_atom_site_type_symbol
_atom_site_fract_x
_atom_site_fract_y
_atom_site_fract_z
_atom_site_charge
C1       C      0.842540000000     0.666630000000     0.555860000000     0.479741   
C2       C      0.818710000000     0.667980000000     0.723920000000     0.480601   
C3       C      0.771730000000     0.635950000000     0.621600000000     0.478847   
C4       C      0.889380000000     0.698520000000     0.658230000000     0.478843   
C5       C      0.183280000000     0.852010000000     0.719080000000     0.478549   
C6       C      0.148890000000     0.827440000000     0.884750000000     0.478756   
C7       C      0.108570000000     0.810710000000     0.775600000000     0.477635   
C8       C      0.222750000000     0.867550000000     0.829460000000     0.479883   
C9       C      0.515760000000     0.004590000000     0.879410000000     0.477723   
C10      C      0.486370000000     0.999030000000     0.046640000000     0.478044   
C11      C      0.443510000000     0.975300000000     0.939710000000     0.477176   
C12      C      0.559000000000     0.028580000000     0.987240000000     0.479716   
C13      C      0.157310000000     0.338990000000     0.382990000000     0.483869   
C14      C      0.183410000000     0.338590000000     0.216730000000     0.484058   
C15      C      0.224500000000     0.365370000000     0.328030000000     0.48222    
C16      C      0.110230000000     0.309900000000     0.276390000000     0.480934   
C17      C      0.852250000000     0.187810000000     0.037470000000     0.479715   
C18      C      0.822560000000     0.160660000000     0.204140000000     0.479744   
C19      C      0.779890000000     0.143550000000     0.097510000000     0.478056   
C20      C      0.895440000000     0.204830000000     0.144650000000     0.47802    
C21      C      0.477920000000     0.484740000000     0.580130000000     0.481984   
C22      C      0.505140000000     0.504180000000     0.412030000000     0.481697   
C23      C      0.549490000000     0.523390000000     0.516740000000     0.478064   
C24      C      0.432810000000     0.465510000000     0.475190000000     0.478143   
C25      C      0.176480000000     0.353600000000     0.715790000000     0.481341   
C26      C      0.190860000000     0.343770000000     0.884650000000     0.481721   
C27      C      0.212640000000     0.319200000000     0.781760000000     0.481776   
C28      C      0.154490000000     0.378310000000     0.819410000000     0.481334   
C29      C      0.358690000000     0.168960000000     0.734910000000     0.481877   
C30      C      0.344030000000     0.188830000000     0.569200000000     0.482446   
C31      C      0.323770000000     0.208680000000     0.676520000000     0.483966   
C32      C      0.379070000000     0.149490000000     0.624090000000     0.482611   
C33      C      0.007820000000     0.521610000000     0.875950000000     0.481267   
C34      C      0.010560000000     0.497140000000     0.043640000000     0.479766   
C35      C      0.039860000000     0.481480000000     0.939630000000     0.482801   
C36      C      0.978450000000     0.536630000000     0.981310000000     0.480244   
C37      C      0.649560000000     0.826200000000     0.215520000000     0.481971   
C38      C      0.661560000000     0.812920000000     0.384260000000     0.481446   
C39      C      0.683190000000     0.789200000000     0.280130000000     0.482918   
C40      C      0.627800000000     0.850650000000     0.320790000000     0.480941   
C41      C      0.842170000000     0.655510000000     0.223450000000     0.48132    
C42      C      0.821140000000     0.666260000000     0.056890000000     0.47984    
C43      C      0.799830000000     0.686640000000     0.164580000000     0.481508   
C44      C      0.863520000000     0.635260000000     0.116050000000     0.483423   
C45      C      0.490640000000     0.006460000000     0.380140000000     0.477846   
C46      C      0.513820000000     0.996040000000     0.546080000000     0.478145   
C47      C      0.529000000000     0.971230000000     0.435690000000     0.480894   
C48      C      0.475420000000     0.031840000000     0.489610000000     0.480351   
C49      C      0.351040000000     0.172180000000     0.067660000000     0.479997   
C50      C      0.349530000000     0.192100000000     0.236800000000     0.480793   
C51      C      0.377260000000     0.241560000000     0.137050000000     0.478155   
C52      C      0.322890000000     0.122950000000     0.168620000000     0.47846    
C53      C      0.512820000000     0.524740000000     0.079790000000     0.484036   
C54      C      0.493230000000     0.502910000000     0.911640000000     0.482121   
C55      C      0.475480000000     0.458300000000     0.019160000000     0.485716   
C56      C      0.533960000000     0.574480000000     0.976320000000     0.480753   
C57      C      0.185430000000     0.856010000000     0.385820000000     0.477762   
C58      C      0.161690000000     0.831220000000     0.217640000000     0.478444   
C59      C      0.141000000000     0.785540000000     0.323070000000     0.480035   
C60      C      0.206750000000     0.902680000000     0.282290000000     0.479588   
C61      C      0.007450000000     0.521990000000     0.542640000000     0.47976    
C62      C      0.998830000000     0.490010000000     0.376310000000     0.479024   
C63      C      0.974870000000     0.448890000000     0.485720000000     0.480378   
C64      C      0.031500000000     0.564050000000     0.434460000000     0.479623   
C65      C      0.827140000000     0.154990000000     0.536760000000     0.478426   
C66      C      0.848310000000     0.184110000000     0.704110000000     0.47831    
C67      C      0.867200000000     0.227720000000     0.597580000000     0.48018    
C68      C      0.808070000000     0.111320000000     0.642720000000     0.48175    
C69      C      0.669630000000     0.849340000000     0.883310000000     0.48318    
C70      C      0.669720000000     0.824180000000     0.716430000000     0.483182   
C71      C      0.641260000000     0.781610000000     0.825820000000     0.486051   
C72      C      0.699880000000     0.896660000000     0.777340000000     0.481509   
C73      C      0.760250000000     0.060230000000     0.652650000000     0.106518   
C74      C      0.809710000000     0.069850000000     0.681800000000     0.075251   
C75      C      0.745310000000     0.030060000000     0.673060000000    -0.0998033  
C76      C      0.715060000000     0.974380000000     0.736990000000    -0.0880872  
C77      C      0.795210000000     0.040350000000     0.703310000000    -0.0921595  
C78      C      0.746570000000     0.988260000000     0.722360000000     0.0323098  
C79      C      0.762560000000     0.020020000000     0.699570000000     0.0406254  
C80      C      0.699910000000     0.943930000000     0.755850000000     0.0745987  
C81      C      0.746840000000     0.941210000000     0.749440000000     0.0743895  
C82      C      0.762440000000     0.971220000000     0.729250000000    -0.0883453  
C83      C      0.931920000000     0.406250000000     0.528070000000     0.10619    
C84      C      0.972960000000     0.399750000000     0.495560000000     0.0749495  
C85      C      0.917230000000     0.374900000000     0.544130000000    -0.0999348  
C86      C      0.880690000000     0.304220000000     0.554740000000    -0.0889205  
C87      C      0.958330000000     0.368270000000     0.510470000000    -0.0911856  
C88      C      0.913740000000     0.321700000000     0.551210000000     0.0332029  
C89      C      0.929990000000     0.355320000000     0.534910000000     0.0398576  
C90      C      0.865690000000     0.273180000000     0.571230000000     0.0748477  
C91      C      0.914970000000     0.275290000000     0.579160000000     0.074239   
C92      C      0.930850000000     0.306760000000     0.563860000000    -0.0882589  
C93      C      0.095680000000     0.742090000000     0.361930000000     0.104274   
C94      C      0.136120000000     0.734790000000     0.329050000000     0.0736839  
C95      C      0.080320000000     0.710460000000     0.377170000000    -0.0992582  
C96      C      0.043830000000     0.639200000000     0.387250000000    -0.0886515  
C97      C      0.121030000000     0.703250000000     0.343590000000    -0.0917771  
C98      C      0.076880000000     0.657350000000     0.385370000000     0.0331035  
C99      C      0.092890000000     0.690710000000     0.368240000000     0.0395806  
C100     C      0.029140000000     0.608300000000     0.404400000000     0.075006   
C101     C      0.078890000000     0.612250000000     0.417040000000     0.0737457  
C102     C      0.094390000000     0.643440000000     0.400660000000    -0.0885908  
C103     C      0.604410000000     0.750050000000     0.883560000000     0.103731   
C104     C      0.635490000000     0.732120000000     0.844790000000     0.0789059  
C105     C      0.589980000000     0.721900000000     0.909160000000    -0.0997547  
C106     C      0.598220000000     0.651730000000     0.938600000000    -0.0889059  
C107     C      0.621210000000     0.703850000000     0.869280000000    -0.0923157  
C108     C      0.581730000000     0.667340000000     0.926390000000     0.0332234  
C109     C      0.597950000000     0.698220000000     0.901660000000     0.0401597  
C110     C      0.582030000000     0.621060000000     0.956530000000     0.0748442  
C111     C      0.533800000000     0.621570000000     0.953900000000     0.0738409  
C112     C      0.549230000000     0.652170000000     0.935370000000    -0.0885053  
C113     C      0.214580000000     0.956270000000     0.277940000000     0.10605    
C114     C      0.252180000000     0.944050000000     0.246730000000     0.0738029  
C115     C      0.231640000000     0.987040000000     0.259800000000    -0.10056    
C116     C      0.259310000000     0.042620000000     0.195660000000    -0.0892483  
C117     C      0.269490000000     0.974590000000     0.228420000000    -0.0913554  
C118     C      0.276130000000     0.028670000000     0.213430000000     0.0336432  
C119     C      0.258920000000     0.996300000000     0.233950000000     0.039338   
C120     C      0.275390000000     0.073800000000     0.179680000000     0.0747629  
C121     C      0.324640000000     0.077510000000     0.195840000000     0.0736319  
C122     C      0.309240000000     0.046320000000     0.212490000000    -0.08805    
C123     C      0.478430000000     0.424550000000     0.075700000000     0.103862   
C124     C      0.431560000000     0.407860000000     0.032090000000     0.0785971  
C125     C      0.464580000000     0.394680000000     0.096950000000    -0.0994877  
C126     C      0.438260000000     0.323370000000     0.109780000000    -0.0881337  
C127     C      0.417490000000     0.377950000000     0.052190000000    -0.0921144  
C128     C      0.419930000000     0.337860000000     0.103020000000     0.0330038  
C129     C      0.434150000000     0.370700000000     0.084310000000     0.0399364  
C130     C      0.423780000000     0.291340000000     0.122450000000     0.0733683  
C131     C      0.373660000000     0.287900000000     0.123280000000     0.0744797  
C132     C      0.387360000000     0.319840000000     0.111170000000    -0.0889972  
C133     C      0.694900000000     0.818330000000     0.647570000000     0.104567   
C134     C      0.643120000000     0.811470000000     0.645890000000     0.0742948  
C135     C      0.693790000000     0.814390000000     0.600140000000    -0.100654   
C136     C      0.692650000000     0.831200000000     0.500330000000    -0.0894706  
C137     C      0.641530000000     0.807200000000     0.598990000000    -0.0927971  
C138     C      0.667010000000     0.808140000000     0.525200000000     0.0333308  
C139     C      0.667260000000     0.809330000000     0.575520000000     0.0400663  
C140     C      0.690790000000     0.831930000000     0.453040000000     0.0750265  
C141     C      0.639470000000     0.786520000000     0.454310000000     0.0747375  
C142     C      0.640430000000     0.785300000000     0.501660000000    -0.0896324  
C143     C      0.630640000000     0.802730000000     0.140380000000     0.10388    
C144     C      0.666480000000     0.858080000000     0.149620000000     0.0745834  
C145     C      0.632910000000     0.806700000000     0.092940000000    -0.0990658  
C146     C      0.631690000000     0.821560000000     0.993520000000    -0.0867529  
C147     C      0.668580000000     0.862520000000     0.102690000000    -0.0921479  
C148     C      0.656520000000     0.840540000000     0.023320000000     0.0332057  
C149     C      0.652280000000     0.836620000000     0.073580000000     0.0398837  
C150     C      0.636570000000     0.824460000000     0.946520000000     0.0742864  
C151     C      0.690120000000     0.864660000000     0.957560000000     0.0766251  
C152     C      0.686100000000     0.862040000000     0.004650000000    -0.0881523  
C153     C      0.686930000000     0.741090000000     0.273760000000     0.105615   
C154     C      0.726200000000     0.790360000000     0.242540000000     0.0758704  
C155     C      0.703380000000     0.726400000000     0.256780000000    -0.0992676  
C156     C      0.733420000000     0.696840000000     0.199480000000    -0.0884866  
C157     C      0.742400000000     0.776120000000     0.224620000000    -0.0925125  
C158     C      0.749090000000     0.728660000000     0.213660000000     0.0334795  
C159     C      0.731270000000     0.743820000000     0.231700000000     0.0401207  
C160     C      0.750710000000     0.683110000000     0.183190000000     0.0751544  
C161     C      0.798580000000     0.731800000000     0.192820000000     0.0750967  
C162     C      0.782150000000     0.746020000000     0.210310000000    -0.0892126  
C163     C      0.569740000000     0.969430000000     0.390200000000     0.104963   
C164     C      0.529490000000     0.923170000000     0.426960000000     0.0743298  
C165     C      0.583070000000     0.951730000000     0.373510000000    -0.0995714  
C166     C      0.617660000000     0.915660000000     0.363610000000    -0.0892814  
C167     C      0.542630000000     0.905260000000     0.411010000000    -0.0914674  
C168     C      0.584730000000     0.901140000000     0.367220000000     0.0333908  
C169     C      0.569870000000     0.919510000000     0.384190000000     0.0397384  
C170     C      0.631480000000     0.898610000000     0.347060000000     0.0752434  
C171     C      0.581110000000     0.852630000000     0.338390000000     0.0741055  
C172     C      0.566410000000     0.869200000000     0.354200000000    -0.0885349  
C173     C      0.032340000000     0.552910000000     0.806880000000     0.104373   
C174     C      0.982390000000     0.505330000000     0.804490000000     0.0725535  
C175     C      0.032050000000     0.554800000000     0.759190000000    -0.100683   
C176     C      0.034620000000     0.535560000000     0.660890000000    -0.0892973  
C177     C      0.981520000000     0.507200000000     0.757230000000    -0.0930034  
C178     C      0.007870000000     0.531990000000     0.683610000000     0.0338696  
C179     C      0.006870000000     0.531630000000     0.734030000000     0.0405471  
C180     C      0.034410000000     0.533070000000     0.613590000000     0.0749479  
C181     C      0.982580000000     0.525490000000     0.610440000000     0.0734855  
C182     C      0.981790000000     0.527300000000     0.657850000000    -0.0900002  
C183     C      0.971420000000     0.474340000000     0.303040000000     0.105047   
C184     C      0.025780000000     0.489830000000     0.309650000000     0.0748796  
C185     C      0.973780000000     0.473610000000     0.255440000000    -0.100782   
C186     C      0.032180000000     0.510090000000     0.164270000000    -0.0887684  
C187     C      0.028550000000     0.489180000000     0.262550000000    -0.0930015  
C188     C      0.006030000000     0.484180000000     0.184450000000     0.0338182  
C189     C      0.002660000000     0.481880000000     0.234780000000     0.0408362  
C190     C      0.033810000000     0.513540000000     0.117030000000     0.0744944  
C191     C      0.985020000000     0.465570000000     0.108960000000     0.0735978  
C192     C      0.982570000000     0.461470000000     0.156130000000    -0.0898948  
C193     C      0.912590000000     0.634620000000     0.105830000000     0.10659    
C194     C      0.864070000000     0.594040000000     0.074880000000     0.0759421  
C195     C      0.928580000000     0.620660000000     0.085100000000    -0.0997171  
C196     C      0.960830000000     0.597470000000     0.021280000000    -0.0881463  
C197     C      0.879600000000     0.580330000000     0.053060000000    -0.092276   
C198     C      0.929230000000     0.578900000000     0.035130000000     0.0331405  
C199     C      0.912290000000     0.593610000000     0.057710000000     0.0402776  
C200     C      0.976840000000     0.583050000000     0.002720000000     0.0739606  
C201     C      0.930610000000     0.532490000000     0.007930000000     0.074925   
C202     C      0.914160000000     0.545990000000     0.027810000000    -0.0888208  
C203     C      0.387770000000     0.183720000000     0.806840000000     0.105359   
C204     C      0.333780000000     0.143130000000     0.803350000000     0.0740545  
C205     C      0.386380000000     0.182400000000     0.854600000000    -0.099889   
C206     C      0.379830000000     0.165380000000     0.955420000000    -0.0892665  
C207     C      0.331980000000     0.141390000000     0.850620000000    -0.0928479  
C208     C      0.355530000000     0.162570000000     0.927110000000     0.0331215  
C209     C      0.358100000000     0.161840000000     0.876830000000     0.0398064  
C210     C      0.377660000000     0.167910000000     0.002450000000     0.0742539  
C211     C      0.327730000000     0.164390000000     0.994220000000     0.0742249  
C212     C      0.329090000000     0.161690000000     0.947120000000    -0.0889017  
C213     C      0.314350000000     0.174810000000     0.497720000000     0.105614   
C214     C      0.367890000000     0.216490000000     0.501420000000     0.0749805  
C215     C      0.315270000000     0.177430000000     0.450080000000    -0.0998617  
C216     C      0.320580000000     0.196410000000     0.350090000000    -0.0893718  
C217     C      0.369170000000     0.219590000000     0.454320000000    -0.0928271  
C218     C      0.345430000000     0.199720000000     0.377660000000     0.0333863  
C219     C      0.343080000000     0.199270000000     0.427990000000     0.0400858  
C220     C      0.322630000000     0.194700000000     0.302880000000     0.0744458  
C221     C      0.373500000000     0.200190000000     0.309640000000     0.0748656  
C222     C      0.372260000000     0.202050000000     0.356810000000    -0.0893811  
C223     C      0.420520000000     0.149490000000     0.578280000000     0.106124   
C224     C      0.379770000000     0.101900000000     0.611620000000     0.0755004  
C225     C      0.433640000000     0.132290000000     0.558970000000    -0.0999747  
C226     C      0.467110000000     0.096100000000     0.539870000000    -0.0893286  
C227     C      0.392840000000     0.084520000000     0.593410000000    -0.091509   
C228     C      0.434350000000     0.081550000000     0.546190000000     0.0333381  
C229     C      0.420090000000     0.099610000000     0.566620000000     0.040047   
C230     C      0.480220000000     0.079380000000     0.519770000000     0.075129   
C231     C      0.429580000000     0.033490000000     0.513350000000     0.0746191  
C232     C      0.415550000000     0.049820000000     0.532370000000    -0.0881553  
C233     C      0.044950000000     0.434500000000     0.931150000000     0.106437   
C234     C      0.085060000000     0.485140000000     0.905060000000     0.0752625  
C235     C      0.061640000000     0.420560000000     0.912750000000    -0.0998046  
C236     C      0.090270000000     0.392580000000     0.851250000000    -0.089017   
C237     C      0.101630000000     0.471640000000     0.885640000000    -0.0919272  
C238     C      0.106950000000     0.423820000000     0.867790000000     0.0332572  
C239     C      0.089840000000     0.438900000000     0.888750000000     0.0399457  
C240     C      0.106530000000     0.377950000000     0.834550000000     0.0754141  
C241     C      0.155540000000     0.424990000000     0.846620000000     0.0743522  
C242     C      0.140050000000     0.440120000000     0.864720000000    -0.0887293  
C243     C      0.320790000000     0.257050000000     0.682450000000     0.106333   
C244     C      0.280580000000     0.208030000000     0.713160000000     0.0755037  
C245     C      0.304910000000     0.272300000000     0.699170000000    -0.0998232  
C246     C      0.276780000000     0.303450000000     0.755640000000    -0.0889952  
C247     C      0.264770000000     0.222870000000     0.730720000000    -0.092145   
C248     C      0.259980000000     0.271630000000     0.741530000000     0.0333905  
C249     C      0.276870000000     0.255410000000     0.724000000000     0.0401515  
C250     C      0.260600000000     0.318920000000     0.769250000000     0.0751787  
C251     C      0.211470000000     0.271800000000     0.758110000000     0.074837   
C252     C      0.226880000000     0.255800000000     0.743300000000    -0.089055   
C253     C      0.473550000000     0.456990000000     0.651920000000     0.10476    
C254     C      0.470850000000     0.504550000000     0.649850000000     0.073881   
C255     C      0.474430000000     0.458320000000     0.699660000000    -0.100897   
C256     C      0.457300000000     0.492110000000     0.798920000000    -0.0901062  
C257     C      0.470980000000     0.505830000000     0.697140000000    -0.0929436  
C258     C      0.477650000000     0.486360000000     0.772370000000     0.0333775  
C259     C      0.473880000000     0.483210000000     0.722420000000     0.0400001  
C260     C      0.462440000000     0.496860000000     0.845670000000     0.0746201  
C261     C      0.507450000000     0.490560000000     0.840230000000     0.0750605  
C262     C      0.502680000000     0.485170000000     0.793540000000    -0.0895751  
C263     C      0.524380000000     0.538190000000     0.345180000000     0.106336   
C264     C      0.501630000000     0.482120000000     0.339320000000     0.0749019  
C265     C      0.526010000000     0.540600000000     0.297590000000    -0.100349   
C266     C      0.506800000000     0.537870000000     0.200070000000    -0.0884342  
C267     C      0.502730000000     0.483970000000     0.291970000000    -0.0920201  
C268     C      0.513710000000     0.515800000000     0.220030000000     0.0329282  
C269     C      0.514320000000     0.513350000000     0.270460000000     0.0404396  
C270     C      0.506340000000     0.540320000000     0.152940000000     0.0774439  
C271     C      0.518010000000     0.498540000000     0.144110000000     0.073595   
C272     C      0.518770000000     0.495600000000     0.191410000000    -0.0857951  
C273     C      0.856860000000     0.218200000000     0.968130000000     0.103907   
C274     C      0.862100000000     0.172090000000     0.966040000000     0.0730781  
C275     C      0.857900000000     0.219430000000     0.920310000000    -0.100098   
C276     C      0.835260000000     0.198540000000     0.822400000000    -0.0888528  
C277     C      0.863770000000     0.173340000000     0.918710000000    -0.0921854  
C278     C      0.859270000000     0.196170000000     0.844850000000     0.0328573  
C279     C      0.860760000000     0.196600000000     0.895280000000     0.0394455  
C280     C      0.832340000000     0.195180000000     0.775160000000     0.0741536  
C281     C      0.877410000000     0.188910000000     0.771610000000     0.0734911  
C282     C      0.880730000000     0.191710000000     0.818860000000    -0.089455   
C283     C      0.805050000000     0.169660000000     0.277570000000     0.10576    
C284     C      0.824580000000     0.133790000000     0.270070000000     0.0735037  
C285     C      0.804320000000     0.166140000000     0.325030000000    -0.0998111  
C286     C      0.792400000000     0.144770000000     0.423260000000    -0.0890936  
C287     C      0.823860000000     0.129860000000     0.317180000000    -0.0919235  
C288     C      0.815960000000     0.145050000000     0.395780000000     0.0329939  
C289     C      0.814400000000     0.146700000000     0.345350000000     0.039622   
C290     C      0.796010000000     0.146950000000     0.470450000000     0.0745287  
C291     C      0.844830000000     0.147880000000     0.464390000000     0.073834   
C292     C      0.842020000000     0.145810000000     0.417010000000    -0.088389   
C293     C      0.178110000000     0.373450000000     0.448430000000     0.09937    
C294     C      0.148270000000     0.317170000000     0.456460000000     0.0770091  
C295     C      0.181400000000     0.376660000000     0.495840000000    -0.0978904  
C296     C      0.196590000000     0.375980000000     0.596260000000    -0.0886991  
C297     C      0.151400000000     0.319820000000     0.503480000000    -0.0921887  
C298     C      0.169320000000     0.352650000000     0.574350000000     0.0336096  
C299     C      0.167500000000     0.349780000000     0.523920000000     0.0394016  
C300     C      0.198180000000     0.376850000000     0.643760000000     0.0742788  
C301     C      0.146280000000     0.332630000000     0.648400000000     0.0752359  
C302     C      0.143720000000     0.331400000000     0.601190000000    -0.0897061  
C303     C      0.189230000000     0.313020000000     0.148180000000     0.104689   
C304     C      0.196390000000     0.365210000000     0.146060000000     0.0741769  
C305     C      0.192370000000     0.313650000000     0.100650000000    -0.100861   
C306     C      0.220220000000     0.366020000000     0.001080000000    -0.0898501  
C307     C      0.200030000000     0.366380000000     0.099070000000    -0.092914   
C308     C      0.197460000000     0.339860000000     0.025500000000     0.0332114  
C309     C      0.197180000000     0.340140000000     0.075790000000     0.0400926  
C310     C      0.218300000000     0.366470000000     0.953770000000     0.0744046  
C311     C      0.172200000000     0.315520000000     0.954330000000     0.0747885  
C312     C      0.173640000000     0.314140000000     0.001590000000    -0.0894975  
C313     C      0.057910000000     0.262840000000     0.268050000000     0.10543    
C314     C      0.069550000000     0.312680000000     0.236740000000     0.0742723  
C315     C      0.027800000000     0.248620000000     0.247880000000    -0.0999772  
C316     C      0.973640000000     0.220270000000     0.181090000000    -0.0884643  
C317     C      0.039770000000     0.298950000000     0.216390000000    -0.0918252  
C318     C      0.986920000000     0.251090000000     0.198850000000     0.0314782  
C319     C      0.018610000000     0.266460000000     0.221140000000     0.0409269  
C320     C      0.943350000000     0.205480000000     0.162260000000     0.0737024  
C321     C      0.939200000000     0.251280000000     0.176180000000     0.0735429  
C322     C      0.969400000000     0.266720000000     0.195610000000    -0.0874571  
C323     C      0.259900000000     0.404660000000     0.382040000000     0.0987399  
C324     C      0.270230000000     0.365120000000     0.352510000000     0.0759686  
C325     C      0.287490000000     0.416820000000     0.408510000000    -0.0969674  
C326     C      0.356730000000     0.452970000000     0.433200000000    -0.0881442  
C327     C      0.298340000000     0.377650000000     0.377080000000    -0.0907352  
C328     C      0.339440000000     0.419860000000     0.427710000000     0.0330272  
C329     C      0.307720000000     0.404180000000     0.405070000000     0.0388347  
C330     C      0.387430000000     0.467650000000     0.450640000000     0.0738681  
C331     C      0.384770000000     0.417840000000     0.457860000000     0.0736669  
C332     C      0.353730000000     0.402300000000     0.441420000000    -0.0878415  
C333     C      0.501150000000     0.968160000000     0.619020000000     0.105207   
C334     C      0.540860000000     0.022570000000     0.613210000000     0.0737685  
C335     C      0.503800000000     0.970220000000     0.666680000000    -0.099064   
C336     C      0.523480000000     0.977500000000     0.766190000000    -0.0896673  
C337     C      0.543850000000     0.025060000000     0.660470000000    -0.0909196  
C338     C      0.525510000000     0.001870000000     0.738400000000     0.0343118  
C339     C      0.524660000000     0.998980000000     0.687890000000     0.0379361  
C340     C      0.521390000000     0.979340000000     0.813400000000     0.0736271  
C341     C      0.524440000000     0.029390000000     0.806650000000     0.0738298  
C342     C      0.526670000000     0.028360000000     0.759320000000    -0.0887323  
C343     C      0.469450000000     0.971500000000     0.119770000000     0.105142   
C344     C      0.488400000000     0.026950000000     0.113690000000     0.0738502  
C345     C      0.468620000000     0.973730000000     0.167370000000    -0.100049   
C346     C      0.456240000000     0.982100000000     0.266260000000    -0.0891526  
C347     C      0.487610000000     0.029600000000     0.160900000000    -0.0920845  
C348     C      0.479780000000     0.005720000000     0.239000000000     0.0331864  
C349     C      0.478340000000     0.002990000000     0.188450000000     0.0400906  
C350     C      0.459620000000     0.983410000000     0.313560000000     0.0733531  
C351     C      0.508320000000     0.031680000000     0.307960000000     0.0740034  
C352     C      0.505670000000     0.031130000000     0.260550000000    -0.0882088  
C353     C      0.602620000000     0.027320000000     0.026480000000     0.104181   
C354     C      0.608730000000     0.075230000000     0.995140000000     0.0730082  
C355     C      0.634070000000     0.043930000000     0.041850000000    -0.0988386  
C356     C      0.699780000000     0.125490000000     0.066510000000    -0.0881505  
C357     C      0.640060000000     0.092020000000     0.009880000000    -0.091201   
C358     C      0.686450000000     0.094170000000     0.050620000000     0.0329927  
C359     C      0.653170000000     0.076500000000     0.033700000000     0.0392794  
C360     C      0.730980000000     0.141610000000     0.082250000000     0.0739209  
C361     C      0.736120000000     0.096430000000     0.067920000000     0.0742589  
C362     C      0.705180000000     0.079770000000     0.051460000000    -0.0884023  
C363     C      0.195770000000     0.885150000000     0.650740000000     0.104834   
C364     C      0.190990000000     0.833990000000     0.647920000000     0.072941   
C365     C      0.197800000000     0.886950000000     0.603050000000    -0.100542   
C366     C      0.173980000000     0.869500000000     0.505140000000    -0.0887729  
C367     C      0.193740000000     0.835730000000     0.600580000000    -0.0918594  
C368     C      0.195190000000     0.862550000000     0.527170000000     0.0329106  
C369     C      0.196090000000     0.861920000000     0.577600000000     0.0396297  
C370     C      0.171540000000     0.867890000000     0.457810000000     0.0746309  
C371     C      0.211890000000     0.854420000000     0.453220000000     0.0736617  
C372     C      0.214490000000     0.855190000000     0.500690000000    -0.0889262  
C373     C      0.133570000000     0.840090000000     0.957390000000     0.105877   
C374     C      0.149700000000     0.801410000000     0.952340000000     0.0738066  
C375     C      0.133990000000     0.838480000000     0.005090000000    -0.0994639  
C376     C      0.172040000000     0.818460000000     0.097330000000    -0.0882114  
C377     C      0.150070000000     0.799330000000     0.999690000000    -0.0918064  
C378     C      0.146390000000     0.819170000000     0.077180000000     0.0328201  
C379     C      0.143110000000     0.818680000000     0.026720000000     0.0398027  
C380     C      0.176370000000     0.821710000000     0.144450000000     0.0735563  
C381     C      0.130030000000     0.825350000000     0.152590000000     0.0740341  
C382     C      0.124960000000     0.822080000000     0.105620000000    -0.0883987  
C383     C      0.264510000000     0.866100000000     0.872400000000     0.106106   
C384     C      0.272170000000     0.914220000000     0.839580000000     0.0745528  
C385     C      0.295810000000     0.882030000000     0.888170000000    -0.0996091  
C386     C      0.366140000000     0.914010000000     0.897910000000    -0.088346   
C387     C      0.303610000000     0.930350000000     0.854240000000    -0.0907482  
C388     C      0.349670000000     0.930720000000     0.894260000000     0.0327218  
C389     C      0.316010000000     0.914260000000     0.878550000000     0.0396238  
C390     C      0.397160000000     0.929140000000     0.913950000000     0.0744108  
C391     C      0.397120000000     0.977660000000     0.921110000000     0.0728534  
C392     C      0.365700000000     0.963020000000     0.906210000000    -0.0873067  
C393     C      0.815950000000     0.694950000000     0.793110000000     0.103775   
C394     C      0.808620000000     0.642720000000     0.795510000000     0.0739613  
C395     C      0.814200000000     0.694960000000     0.840880000000    -0.0997563  
C396     C      0.834620000000     0.695700000000     0.939590000000    -0.0888115  
C397     C      0.806480000000     0.642230000000     0.842720000000    -0.0923476  
C398     C      0.810800000000     0.669470000000     0.916450000000     0.0330434  
C399     C      0.809970000000     0.668740000000     0.866010000000     0.0397111  
C400     C      0.837220000000     0.694630000000     0.986800000000     0.0740955  
C401     C      0.792190000000     0.642990000000     0.988940000000     0.0738659  
C402     C      0.789090000000     0.643160000000     0.941760000000    -0.0894963  
C403     C      0.829210000000     0.627070000000     0.296150000000     0.105155   
C404     C      0.868500000000     0.681680000000     0.291000000000     0.0744085  
C405     C      0.831480000000     0.628990000000     0.343860000000    -0.0995961  
C406     C      0.850180000000     0.637280000000     0.444350000000    -0.0887583  
C407     C      0.871180000000     0.683990000000     0.338170000000    -0.0926453  
C408     C      0.851850000000     0.661000000000     0.415480000000     0.0331543  
C409     C      0.851860000000     0.657810000000     0.365230000000     0.0399441  
C410     C      0.848020000000     0.639950000000     0.491400000000     0.0742451  
C411     C      0.849770000000     0.689270000000     0.482000000000     0.0746525  
C412     C      0.852120000000     0.687430000000     0.434960000000    -0.0888092  
C413     C      0.720290000000     0.587100000000     0.618810000000     0.104887   
C414     C      0.728070000000     0.635150000000     0.585660000000     0.0741238  
C415     C      0.688960000000     0.571230000000     0.602670000000    -0.099121   
C416     C      0.629100000000     0.538860000000     0.545890000000    -0.0878489  
C417     C      0.697180000000     0.619750000000     0.569100000000    -0.0911839  
C418     C      0.643830000000     0.570660000000     0.560210000000     0.032947   
C419     C      0.677140000000     0.587370000000     0.577230000000     0.0395872  
C420     C      0.597640000000     0.523450000000     0.531150000000     0.0737464  
C421     C      0.595050000000     0.570300000000     0.543040000000     0.0744966  
C422     C      0.626270000000     0.586290000000     0.558460000000    -0.088134   
C423     C      0.940670000000     0.747470000000     0.662730000000     0.104582   
C424     C      0.932610000000     0.699160000000     0.695270000000     0.0738327  
C425     C      0.971650000000     0.763350000000     0.680220000000    -0.0986538  
C426     C      0.029990000000     0.795350000000     0.740300000000    -0.0881247  
C427     C      0.963140000000     0.714550000000     0.713150000000    -0.0909341  
C428     C      0.015950000000     0.763820000000     0.724950000000     0.0341851  
C429     C      0.983120000000     0.747090000000     0.706110000000     0.0382355  
C430     C      0.060900000000     0.810670000000     0.757290000000     0.0739798  
C431     C      0.064330000000     0.764280000000     0.745390000000     0.074437   
C432     C      0.033690000000     0.748410000000     0.727740000000    -0.0884705  
H1       H      0.675400000000     0.933950000000     0.765900000000     0.0230092  
H2       H      0.834960000000     0.084890000000     0.686910000000     0.0210629  
H3       H      0.786570000000     0.980420000000     0.718060000000     0.0488653  
H4       H      0.809710000000     0.034050000000     0.723710000000     0.0499598  
H5       H      0.701940000000     0.986830000000     0.733960000000     0.0502588  
H6       H      0.720280000000     0.014100000000     0.667400000000     0.0560815  
H7       H      0.759970000000     0.928780000000     0.753330000000     0.0229602  
H8       H      0.840110000000     0.260720000000     0.573230000000     0.022585   
H9       H      0.994640000000     0.408450000000     0.476200000000     0.0219464  
H10      H      0.956410000000     0.319300000000     0.562620000000     0.0497369  
H11      H      0.969070000000     0.354100000000     0.502020000000     0.0508848  
H12      H      0.866190000000     0.314170000000     0.544300000000     0.0499577  
H13      H      0.896210000000     0.366010000000     0.565060000000     0.055114   
H14      H      0.929120000000     0.264670000000     0.588500000000     0.0224489  
H15      H      0.003520000000     0.595230000000     0.405030000000     0.0242037  
H16      H      0.157790000000     0.743030000000     0.309850000000     0.0226626  
H17      H      0.119970000000     0.656640000000     0.400670000000     0.0491725  
H18      H      0.131400000000     0.688750000000     0.335090000000     0.0500505  
H19      H      0.029200000000     0.648590000000     0.375070000000     0.0511035  
H20      H      0.058980000000     0.701460000000     0.397440000000     0.0559298  
H21      H      0.093370000000     0.602470000000     0.428490000000     0.0222209  
H22      H      0.595680000000     0.609630000000     0.964360000000     0.0231915  
H23      H      0.653220000000     0.735510000000     0.819720000000     0.0192463  
H24      H      0.535430000000     0.663210000000     0.926390000000     0.0499539  
H25      H      0.627980000000     0.686220000000     0.861960000000     0.0520038  
H26      H      0.623510000000     0.662850000000     0.933610000000     0.0506112  
H27      H      0.572990000000     0.718770000000     0.935240000000     0.0542912  
H28      H      0.508490000000     0.610360000000     0.959020000000     0.022647   
H29      H      0.261240000000     0.083670000000     0.167070000000     0.0228322  
H30      H      0.260970000000     0.927890000000     0.239990000000     0.0229766  
H31      H      0.323260000000     0.036570000000     0.225910000000     0.0504073  
H32      H      0.290570000000     0.980750000000     0.208860000000     0.0508709  
H33      H      0.233730000000     0.029630000000     0.194400000000     0.0505791  
H34      H      0.224040000000     0.004170000000     0.266610000000     0.0562293  
H35      H      0.350250000000     0.090610000000     0.196810000000     0.0230094  
H36      H      0.438720000000     0.280870000000     0.126240000000     0.022527   
H37      H      0.418220000000     0.412350000000     0.006540000000     0.0184496  
H38      H      0.372310000000     0.330170000000     0.107590000000     0.0503009  
H39      H      0.393990000000     0.360290000000     0.041250000000     0.0517217  
H40      H      0.463490000000     0.336250000000     0.103610000000     0.0501131  
H41      H      0.477490000000     0.390240000000     0.123170000000     0.0542419  
H42      H      0.348280000000     0.274850000000     0.128350000000     0.0232033  
H43      H      0.710860000000     0.850700000000     0.435170000000     0.0228227  
H44      H      0.622430000000     0.810020000000     0.661890000000     0.0240469  
H45      H      0.620280000000     0.766850000000     0.519770000000     0.0500451  
H46      H      0.620540000000     0.803360000000     0.581030000000     0.0515269  
H47      H      0.713580000000     0.849380000000     0.517370000000     0.0509684  
H48      H      0.713710000000     0.815510000000     0.582040000000     0.0554833  
H49      H      0.618200000000     0.768720000000     0.437450000000     0.023143   
H50      H      0.618320000000     0.805310000000     0.925220000000     0.027344   
H51      H      0.679920000000     0.879100000000     0.170400000000     0.022424   
H52      H      0.706310000000     0.876330000000     0.026160000000     0.0496663  
H53      H      0.683200000000     0.886300000000     0.089400000000     0.0503647  
H54      H      0.608750000000     0.803850000000     0.006200000000     0.0503319  
H55      H      0.620580000000     0.786100000000     0.071020000000     0.0554689  
H56      H      0.713210000000     0.881550000000     0.944090000000     0.01829    
H57      H      0.737660000000     0.658410000000     0.172780000000     0.0233675  
H58      H      0.735890000000     0.815420000000     0.235200000000     0.0222478  
H59      H      0.795550000000     0.770410000000     0.221760000000     0.0492462  
H60      H      0.763400000000     0.790570000000     0.204600000000     0.0504262  
H61      H      0.707900000000     0.682560000000     0.200430000000     0.0509326  
H62      H      0.694890000000     0.701540000000     0.264170000000     0.0559113  
H63      H      0.824120000000     0.746180000000     0.191110000000     0.0221391  
H64      H      0.657060000000     0.910940000000     0.345160000000     0.0231626  
H65      H      0.508650000000     0.911010000000     0.448270000000     0.0227723  
H66      H      0.540860000000     0.857070000000     0.355700000000     0.0495751  
H67      H      0.531710000000     0.880450000000     0.420520000000     0.0503768  
H68      H      0.632920000000     0.940050000000     0.374120000000     0.0507528  
H69      H      0.603380000000     0.962900000000     0.351000000000     0.0557213  
H70      H      0.566110000000     0.827950000000     0.328830000000     0.0227515  
H71      H      0.055340000000     0.535160000000     0.597500000000     0.0228535  
H72      H      0.962240000000     0.485280000000     0.820290000000     0.0242753  
H73      H      0.960800000000     0.524750000000     0.674270000000     0.0502196  
H74      H      0.961500000000     0.488800000000     0.738830000000     0.0517134  
H75      H      0.055230000000     0.539120000000     0.679670000000     0.0511048  
H76      H      0.051540000000     0.574330000000     0.741310000000     0.0554527  
H77      H      0.961680000000     0.521260000000     0.591820000000     0.02341    
H78      H      0.054100000000     0.534400000000     0.103000000000     0.0230251  
H79      H      0.047090000000     0.496710000000     0.329150000000     0.0230996  
H80      H      0.962230000000     0.440790000000     0.170310000000     0.0501694  
H81      H      0.051150000000     0.494930000000     0.247930000000     0.0506838  
H82      H      0.050800000000     0.528310000000     0.184890000000     0.0503912  
H83      H      0.953220000000     0.467210000000     0.234310000000     0.0560298  
H84      H      0.966030000000     0.447700000000     0.088400000000     0.0233232  
H85      H      0.001390000000     0.598250000000     0.993280000000     0.0239202  
H86      H      0.838800000000     0.583060000000     0.069180000000     0.0215399  
H87      H      0.890020000000     0.530380000000     0.038450000000     0.0493483  
H88      H      0.865850000000     0.559720000000     0.031840000000     0.0501622  
H89      H      0.973340000000     0.623070000000     0.024740000000     0.0503253  
H90      H      0.953650000000     0.630480000000     0.091260000000     0.0558748  
H91      H      0.918070000000     0.506900000000     0.003690000000     0.0224226  
H92      H      0.397160000000     0.170340000000     0.023050000000     0.0226038  
H93      H      0.312270000000     0.127340000000     0.785060000000     0.0231145  
H94      H      0.309890000000     0.159860000000     0.926450000000     0.0502978  
H95      H      0.309890000000     0.124430000000     0.866540000000     0.0506124  
H96      H      0.400490000000     0.165690000000     0.941380000000     0.0496472  
H97      H      0.407160000000     0.197910000000     0.874560000000     0.0557526  
H98      H      0.307040000000     0.164110000000     0.008130000000     0.0229328  
H99      H      0.302720000000     0.191730000000     0.282780000000     0.0226383  
H100     H      0.389400000000     0.232310000000     0.519690000000     0.0246164  
H101     H      0.391890000000     0.204300000000     0.376850000000     0.0506598  
H102     H      0.390880000000     0.237480000000     0.438560000000     0.0508232  
H103     H      0.299590000000     0.194960000000     0.364860000000     0.0500234  
H104     H      0.294530000000     0.161930000000     0.430030000000     0.0559481  
H105     H      0.394530000000     0.201540000000     0.295100000000     0.0228742  
H106     H      0.505700000000     0.091720000000     0.515850000000     0.0223198  
H107     H      0.358760000000     0.089040000000     0.632430000000     0.0224976  
H108     H      0.390080000000     0.037630000000     0.535630000000     0.0504088  
H109     H      0.381700000000     0.059390000000     0.600930000000     0.0512472  
H110     H      0.482860000000     0.120240000000     0.550940000000     0.0497126  
H111     H      0.453940000000     0.144290000000     0.536630000000     0.055036   
H112     H      0.414210000000     0.008970000000     0.503340000000     0.0232252  
H113     H      0.092610000000     0.353580000000     0.822960000000     0.022562   
H114     H      0.094900000000     0.510520000000     0.900490000000     0.0221603  
H115     H      0.154150000000     0.464130000000     0.877370000000     0.0490143  
H116     H      0.123200000000     0.486910000000     0.867260000000     0.0501662  
H117     H      0.064690000000     0.379270000000     0.851240000000     0.0506335  
H118     H      0.052930000000     0.395420000000     0.917980000000     0.0558739  
H119     H      0.181150000000     0.438290000000     0.845730000000     0.0219031  
H120     H      0.274570000000     0.343630000000     0.779300000000     0.0227487  
H121     H      0.270380000000     0.182860000000     0.720110000000     0.0216111  
H122     H      0.212750000000     0.231390000000     0.732190000000     0.049436   
H123     H      0.243360000000     0.208800000000     0.750120000000     0.0501227  
H124     H      0.302370000000     0.316510000000     0.756180000000     0.0507223  
H125     H      0.313930000000     0.297230000000     0.691630000000     0.0561713  
H126     H      0.185850000000     0.258720000000     0.758300000000     0.0223104  
H127     H      0.446230000000     0.501440000000     0.864980000000     0.0222248  
H128     H      0.469610000000     0.523500000000     0.632210000000     0.0237918  
H129     H      0.519030000000     0.481000000000     0.773920000000     0.0516788  
H130     H      0.470170000000     0.525320000000     0.713760000000     0.051355   
H131     H      0.437590000000     0.493020000000     0.783630000000     0.0497951  
H132     H      0.475520000000     0.439990000000     0.719390000000     0.0562784  
H133     H      0.527420000000     0.489930000000     0.855210000000     0.0231533  
H134     H      0.501240000000     0.557830000000     0.138490000000     0.0184614  
H135     H      0.491310000000     0.458540000000     0.354050000000     0.0229195  
H136     H      0.522890000000     0.477330000000     0.205260000000     0.049833   
H137     H      0.493370000000     0.462200000000     0.272510000000     0.051021   
H138     H      0.501370000000     0.553000000000     0.220670000000     0.0507841  
H139     H      0.536750000000     0.563810000000     0.281530000000     0.0559495  
H140     H      0.517370000000     0.479360000000     0.122880000000     0.0273258  
H141     H      0.812940000000     0.196400000000     0.759280000000     0.0231046  
H142     H      0.863740000000     0.152830000000     0.981960000000     0.0236602  
H143     H      0.899820000000     0.190100000000     0.834980000000     0.0494554  
H144     H      0.866190000000     0.155280000000     0.900490000000     0.0508426  
H145     H      0.818100000000     0.201850000000     0.841360000000     0.0509843  
H146     H      0.856520000000     0.238220000000     0.902290000000     0.0554693  
H147     H      0.894290000000     0.185020000000     0.752890000000     0.0220997  
H148     H      0.777490000000     0.147400000000     0.490220000000     0.0233419  
H149     H      0.833160000000     0.120880000000     0.250130000000     0.0226925  
H150     H      0.860850000000     0.146160000000     0.397130000000     0.0501037  
H151     H      0.831150000000     0.113960000000     0.331460000000     0.0501809  
H152     H      0.771480000000     0.143420000000     0.408400000000     0.0501165  
H153     H      0.796370000000     0.179030000000     0.346320000000     0.055804   
H154     H      0.865850000000     0.149390000000     0.479290000000     0.022846   
H155     H      0.219980000000     0.394760000000     0.659360000000     0.0226401  
H156     H      0.135140000000     0.293400000000     0.442330000000     0.0219413  
H157     H      0.121750000000     0.313640000000     0.585920000000     0.0497888  
H158     H      0.141230000000     0.298290000000     0.523650000000     0.0509671  
H159     H      0.217030000000     0.392870000000     0.576980000000     0.0500509  
H160     H      0.194040000000     0.400200000000     0.510700000000     0.0539506  
H161     H      0.126040000000     0.315270000000     0.667650000000     0.0222834  
H162     H      0.236120000000     0.387410000000     0.936190000000     0.0222896  
H163     H      0.198150000000     0.386190000000     0.161880000000     0.0240504  
H164     H      0.155500000000     0.293550000000     0.019390000000     0.051117   
H165     H      0.203830000000     0.387410000000     0.080890000000     0.0514208  
H166     H      0.239180000000     0.386210000000     0.018480000000     0.0498738  
H167     H      0.190950000000     0.293440000000     0.082680000000     0.0554751  
H168     H      0.152920000000     0.295420000000     0.937200000000     0.0227149  
H169     H      0.933980000000     0.181480000000     0.149550000000     0.0224259  
H170     H      0.085170000000     0.337840000000     0.230650000000     0.0236426  
H171     H      0.978520000000     0.290460000000     0.209080000000     0.0499893  
H172     H      0.033790000000     0.313760000000     0.195980000000     0.0515285  
H173     H      0.986530000000     0.207500000000     0.181690000000     0.0494848  
H174     H      0.011130000000     0.223650000000     0.253840000000     0.055564   
H175     H      0.926300000000     0.264060000000     0.175170000000     0.0239212  
H176     H      0.399960000000     0.493340000000     0.453330000000     0.0231584  
H177     H      0.264300000000     0.344800000000     0.330880000000     0.0222     
H178     H      0.341250000000     0.376630000000     0.439090000000     0.0499819  
H179     H      0.313060000000     0.367020000000     0.372690000000     0.0509798  
H180     H      0.347230000000     0.467850000000     0.422540000000     0.0497139  
H181     H      0.293580000000     0.436890000000     0.430660000000     0.0532983  
H182     H      0.395030000000     0.403320000000     0.467160000000     0.0234152  
H183     H      0.519250000000     0.959610000000     0.833410000000     0.0232328  
H184     H      0.555710000000     0.043990000000     0.593930000000     0.0231128  
H185     H      0.528090000000     0.047700000000     0.739190000000     0.0504763  
H186     H      0.560880000000     0.047580000000     0.675450000000     0.0503094  
H187     H      0.523130000000     0.956870000000     0.751560000000     0.050031   
H188     H      0.489140000000     0.949490000000     0.687430000000     0.0554659  
H189     H      0.524590000000     0.049960000000     0.821230000000     0.0228682  
H190     H      0.441140000000     0.964200000000     0.333150000000     0.0229014  
H191     H      0.496740000000     0.048710000000     0.094360000000     0.0231389  
H192     H      0.524510000000     0.049870000000     0.240890000000     0.0504142  
H193     H      0.494650000000     0.052600000000     0.175730000000     0.0502966  
H194     H      0.435460000000     0.962390000000     0.251160000000     0.0496345  
H195     H      0.460850000000     0.952660000000     0.188200000000     0.0558715  
H196     H      0.529240000000     0.051300000000     0.323020000000     0.0234915  
H197     H      0.740270000000     0.165790000000     0.094110000000     0.0234506  
H198     H      0.600100000000     0.088640000000     0.976490000000     0.0228903  
H199     H      0.696240000000     0.055840000000     0.038870000000     0.0504778  
H200     H      0.654000000000     0.117100000000     0.002050000000     0.0501929  
H201     H      0.686160000000     0.137500000000     0.067390000000     0.0495095  
H202     H      0.643460000000     0.031610000000     0.061550000000     0.0557286  
H203     H      0.749670000000     0.084300000000     0.067640000000     0.0230673  
H204     H      0.154280000000     0.872770000000     0.442300000000     0.0240871  
H205     H      0.187930000000     0.812420000000     0.663580000000     0.0241081  
H206     H      0.231370000000     0.849940000000     0.516570000000     0.0499927  
H207     H      0.192600000000     0.815950000000     0.581960000000     0.0515574  
H208     H      0.158580000000     0.875200000000     0.524480000000     0.0516277  
H209     H      0.200900000000     0.907980000000     0.585440000000     0.0559572  
H210     H      0.226970000000     0.848220000000     0.433960000000     0.0224339  
H211     H      0.196920000000     0.821700000000     0.158360000000     0.0227285  
H212     H      0.156560000000     0.786700000000     0.933300000000     0.0238503  
H213     H      0.104440000000     0.822120000000     0.091720000000     0.0500298  
H214     H      0.156380000000     0.782980000000     0.014990000000     0.0507013  
H215     H      0.189380000000     0.816520000000     0.076740000000     0.0502239  
H216     H      0.127800000000     0.853200000000     0.025450000000     0.0557851  
H217     H      0.113070000000     0.828020000000     0.173120000000     0.0236177  
H218     H      0.408740000000     0.915090000000     0.916110000000     0.0231011  
H219     H      0.263940000000     0.927680000000     0.820170000000     0.0224457  
H220     H      0.354050000000     0.976980000000     0.904800000000     0.0496725  
H221     H      0.318180000000     0.955210000000     0.845570000000     0.0507328  
H222     H      0.355390000000     0.889320000000     0.887940000000     0.0497815  
H223     H      0.304200000000     0.869380000000     0.909160000000     0.0549527  
H224     H      0.408550000000     0.002640000000     0.929980000000     0.0235522  
H225     H      0.856530000000     0.715100000000     0.003240000000     0.0233544  
H226     H      0.806190000000     0.621440000000     0.779710000000     0.0242521  
H227     H      0.770060000000     0.622590000000     0.925130000000     0.0497849  
H228     H      0.803200000000     0.621420000000     0.860980000000     0.0511957  
H229     H      0.851980000000     0.716460000000     0.921210000000     0.0510182  
H230     H      0.816330000000     0.715500000000     0.858780000000     0.0554424  
H231     H      0.775200000000     0.621870000000     0.007070000000     0.0226373  
H232     H      0.846340000000     0.620850000000     0.512480000000     0.0231689  
H233     H      0.883480000000     0.703250000000     0.272110000000     0.0237896  
H234     H      0.853100000000     0.706200000000     0.413890000000     0.0505678  
H235     H      0.887960000000     0.706530000000     0.353370000000     0.0509471  
H236     H      0.850360000000     0.616660000000     0.430710000000     0.0500791  
H237     H      0.816810000000     0.608190000000     0.364490000000     0.0559323  
H238     H      0.849450000000     0.709890000000     0.495410000000     0.023517   
H239     H      0.587200000000     0.498840000000     0.520680000000     0.0232629  
H240     H      0.742520000000     0.660150000000     0.577320000000     0.0237937  
H241     H      0.636270000000     0.610640000000     0.569790000000     0.0503732  
H242     H      0.689350000000     0.633290000000     0.549190000000     0.0512537  
H243     H      0.641780000000     0.525880000000     0.545710000000     0.0500509  
H244     H      0.673430000000     0.546380000000     0.611020000000     0.0551759  
H245     H      0.582450000000     0.583400000000     0.542730000000     0.0237999  
H246     H      0.070780000000     0.835050000000     0.768620000000     0.0235346  
H247     H      0.918170000000     0.674050000000     0.702910000000     0.0234507  
H248     H      0.024260000000     0.724300000000     0.715650000000     0.0505965  
H249     H      0.970690000000     0.700890000000     0.733310000000     0.0506657  
H250     H      0.017130000000     0.808150000000     0.739690000000     0.0505088  
H251     H      0.987190000000     0.788330000000     0.672670000000     0.0548526  
H252     H      0.077070000000     0.751340000000     0.746530000000     0.0235694  
N1       N      0.792500000000     0.080430000000     0.658090000000    -0.20995    
N2       N      0.715590000000     0.927320000000     0.761580000000    -0.207688   
N3       N      0.959690000000     0.418500000000     0.503020000000    -0.209448   
N4       N      0.882640000000     0.258690000000     0.583040000000    -0.207502   
N5       N      0.123900000000     0.754380000000     0.337760000000    -0.208207   
N6       N      0.046490000000     0.594820000000     0.418980000000    -0.207089   
N7       N      0.626330000000     0.754300000000     0.850500000000    -0.213303   
N8       N      0.549910000000     0.605720000000     0.962950000000    -0.20741    
N9       N      0.224290000000     0.934260000000     0.269820000000    -0.208551   
N10      N      0.307800000000     0.091430000000     0.180700000000    -0.20681    
N11      N      0.462150000000     0.430130000000     0.041830000000    -0.213268   
N12      N      0.391600000000     0.273520000000     0.127950000000    -0.206727   
N13      N      0.669650000000     0.817780000000     0.670530000000    -0.208627   
N14      N      0.664110000000     0.810210000000     0.430280000000    -0.207766   
N15      N      0.648150000000     0.828580000000     0.168880000000    -0.208941   
N16      N      0.665320000000     0.846860000000     0.929100000000    -0.208761   
N17      N      0.698400000000     0.773240000000     0.266210000000    -0.209822   
N18      N      0.783040000000     0.700490000000     0.179810000000    -0.20795    
N19      N      0.543040000000     0.955110000000     0.417730000000    -0.20906    
N20      N      0.613410000000     0.867240000000     0.334900000000    -0.207552   
N21      N      0.007800000000     0.527230000000     0.829700000000    -0.207331   
N22      N      0.008360000000     0.527420000000     0.588580000000    -0.206545   
N23      N      0.998040000000     0.484060000000     0.330180000000    -0.208776   
N24      N      0.010050000000     0.491840000000     0.089600000000    -0.206432   
N25      N      0.880260000000     0.621480000000     0.099840000000    -0.210273   
N26      N      0.961930000000     0.550760000000     0.996590000000    -0.207741   
N27      N      0.360750000000     0.165180000000     0.781160000000    -0.208868   
N28      N      0.352020000000     0.167920000000     0.021670000000    -0.207238   
N29      N      0.341430000000     0.193320000000     0.523320000000    -0.208824   
N30      N      0.348650000000     0.195980000000     0.282870000000    -0.207731   
N31      N      0.393510000000     0.134130000000     0.605000000000    -0.209653   
N32      N      0.461680000000     0.048210000000     0.507040000000    -0.207637   
N33      N      0.056410000000     0.466840000000     0.926130000000    -0.210117   
N34      N      0.138930000000     0.393860000000     0.832860000000    -0.207987   
N35      N      0.308720000000     0.224820000000     0.690190000000    -0.210063   
N36      N      0.228190000000     0.303300000000     0.770090000000    -0.208124   
N37      N      0.473540000000     0.481310000000     0.626750000000    -0.208579   
N38      N      0.487640000000     0.496630000000     0.866060000000    -0.207956   
N39      N      0.510940000000     0.508610000000     0.365980000000    -0.209651   
N40      N      0.513230000000     0.521830000000     0.125650000000    -0.209002   
N41      N      0.857520000000     0.193420000000     0.991160000000    -0.207585   
N42      N      0.852910000000     0.189820000000     0.750010000000    -0.206787   
N43      N      0.816730000000     0.154570000000     0.250100000000    -0.208512   
N44      N      0.822470000000     0.149450000000     0.490830000000    -0.206665   
N45      N      0.160450000000     0.343550000000     0.429080000000    -0.210981   
N46      N      0.173540000000     0.354730000000     0.669550000000    -0.207925   
N47      N      0.189970000000     0.338580000000     0.170930000000    -0.208807   
N48      N      0.193980000000     0.341770000000     0.930680000000    -0.208044   
N49      N      0.079290000000     0.294940000000     0.261240000000    -0.208361   
N50      N      0.926010000000     0.220640000000     0.160430000000    -0.206361   
N51      N      0.251780000000     0.379100000000     0.353210000000    -0.209948   
N52      N      0.401700000000     0.450330000000     0.461760000000    -0.206433   
N53      N      0.518720000000     0.994970000000     0.592250000000    -0.208114   
N54      N      0.521020000000     0.004700000000     0.833450000000    -0.206047   
N55      N      0.480780000000     0.998600000000     0.092860000000    -0.208042   
N56      N      0.485930000000     0.007520000000     0.334210000000    -0.20597    
N57      N      0.589850000000     0.043120000000     0.002790000000    -0.207689   
N58      N      0.749050000000     0.127210000000     0.082920000000    -0.206392   
N59      N      0.190530000000     0.857650000000     0.673210000000    -0.207453   
N60      N      0.190010000000     0.859920000000     0.432000000000    -0.206358   
N61      N      0.143210000000     0.822740000000     0.930960000000    -0.208078   
N62      N      0.155890000000     0.825800000000     0.171820000000    -0.206377   
N63      N      0.252910000000     0.882230000000     0.847130000000    -0.208962   
N64      N      0.412660000000     0.960780000000     0.925250000000    -0.206322   
N65      N      0.814130000000     0.668920000000     0.770270000000    -0.20774    
N66      N      0.816610000000     0.668160000000     0.011180000000    -0.207076   
N67      N      0.846650000000     0.654090000000     0.269680000000    -0.208392   
N68      N      0.847150000000     0.665440000000     0.510020000000    -0.207006   
N69      N      0.740160000000     0.619190000000     0.609440000000    -0.207862   
N70      N      0.580660000000     0.539000000000     0.529930000000    -0.206177   
N71      N      0.920790000000     0.715250000000     0.671220000000    -0.207814   
N72      N      0.078000000000     0.795280000000     0.759760000000    -0.206133   
O1       O      0.839880000000     0.644200000000     0.582020000000    -0.555571   
O2       O      0.821330000000     0.644910000000     0.707230000000    -0.557096   
O3       O      0.786750000000     0.621280000000     0.631270000000    -0.551371   
O4       O      0.874530000000     0.667930000000     0.658500000000    -0.554616   
O5       O      0.874410000000     0.713200000000     0.648240000000    -0.550491   
O6       O      0.786580000000     0.666550000000     0.621190000000    -0.55392    
O7       O      0.821370000000     0.690240000000     0.697520000000    -0.552193   
O8       O      0.839730000000     0.689620000000     0.572240000000    -0.55748    
O9       O      0.179830000000     0.826440000000     0.737710000000    -0.552013   
O10      O      0.152990000000     0.807480000000     0.861080000000    -0.552248   
O11      O      0.123640000000     0.795440000000     0.779500000000    -0.557297   
O12      O      0.208750000000     0.837870000000     0.819540000000    -0.555023   
O13      O      0.208570000000     0.883550000000     0.823070000000    -0.550137   
O14      O      0.122270000000     0.840460000000     0.785650000000    -0.550584   
O15      O      0.152790000000     0.853050000000     0.866050000000    -0.552748   
O16      O      0.178070000000     0.871130000000     0.742700000000    -0.553721   
O17      O      0.511270000000     0.980680000000     0.903710000000    -0.557034   
O18      O      0.487720000000     0.975890000000     0.027780000000    -0.552448   
O19      O      0.456510000000     0.958430000000     0.947870000000    -0.557844   
O20      O      0.542560000000     0.998220000000     0.983680000000    -0.553973   
O21      O      0.546520000000     0.045610000000     0.976570000000    -0.552684   
O22      O      0.459520000000     0.005700000000     0.944150000000    -0.550956   
O23      O      0.492330000000     0.023670000000     0.022850000000    -0.551721   
O24      O      0.513800000000     0.027630000000     0.897640000000    -0.552007   
O25      O      0.156290000000     0.314110000000     0.366060000000    -0.560216   
O26      O      0.177740000000     0.314890000000     0.242200000000    -0.557091   
O27      O      0.209810000000     0.335150000000     0.321560000000    -0.557186   
O28      O      0.123320000000     0.293580000000     0.287470000000    -0.553311   
O29      O      0.126580000000     0.340460000000     0.277150000000    -0.557169   
O30      O      0.212370000000     0.382010000000     0.314420000000    -0.55739    
O31      O      0.181750000000     0.362150000000     0.233650000000    -0.561282   
O32      O      0.158870000000     0.360840000000     0.356840000000    -0.559668   
O33      O      0.850660000000     0.162740000000     0.054950000000    -0.555567   
O34      O      0.828060000000     0.142170000000     0.179210000000    -0.554339   
O35      O      0.796110000000     0.129350000000     0.099810000000    -0.555956   
O36      O      0.882560000000     0.175280000000     0.134010000000    -0.557036   
O37      O      0.879360000000     0.219190000000     0.142230000000    -0.552702   
O38      O      0.792700000000     0.173160000000     0.107870000000    -0.553616   
O39      O      0.824640000000     0.185890000000     0.186760000000    -0.553946   
O40      O      0.847250000000     0.206350000000     0.062830000000    -0.553199   
O41      O      0.481920000000     0.464740000000     0.556750000000    -0.55442    
O42      O      0.500760000000     0.478390000000     0.430850000000    -0.556863   
O43      O      0.535280000000     0.493440000000     0.507910000000    -0.551224   
O44      O      0.447340000000     0.449720000000     0.479880000000    -0.55194    
O45      O      0.447640000000     0.495730000000     0.481580000000    -0.557865   
O46      O      0.534370000000     0.538690000000     0.514290000000    -0.557579   
O47      O      0.502240000000     0.524840000000     0.435610000000    -0.55526    
O48      O      0.479960000000     0.509350000000     0.560350000000    -0.559228   
O49      O      0.201160000000     0.375350000000     0.736150000000    -0.55677    
O50      O      0.211730000000     0.368120000000     0.862660000000    -0.559428   
O51      O      0.228220000000     0.349560000000     0.786580000000    -0.558458   
O52      O      0.184570000000     0.393940000000     0.813160000000    -0.557602   
O53      O      0.139050000000     0.347940000000     0.815020000000    -0.561732   
O54      O      0.182470000000     0.303760000000     0.786730000000    -0.561774   
O55      O      0.166520000000     0.321820000000     0.863970000000    -0.561106   
O56      O      0.155120000000     0.329900000000     0.738260000000    -0.562985   
O57      O      0.380000000000     0.193830000000     0.714360000000    -0.554493   
O58      O      0.368920000000     0.208880000000     0.590980000000    -0.560126   
O59      O      0.353860000000     0.223610000000     0.671170000000    -0.558187   
O60      O      0.395180000000     0.179310000000     0.632940000000    -0.558098   
O61      O      0.349180000000     0.133970000000     0.632070000000    -0.555311   
O62      O      0.307700000000     0.178440000000     0.670450000000    -0.557005   
O63      O      0.322890000000     0.163770000000     0.589560000000    -0.553005   
O64      O      0.333940000000     0.148740000000     0.713020000000    -0.558775   
O65      O      0.030500000000     0.541290000000     0.901450000000    -0.555293   
O66      O      0.033040000000     0.522850000000     0.026290000000    -0.556805   
O67      O      0.054740000000     0.511440000000     0.948230000000    -0.557536   
O68      O      0.008770000000     0.552800000000     0.978980000000    -0.556457   
O69      O      0.963620000000     0.506880000000     0.971520000000    -0.560273   
O70      O      0.009540000000     0.465640000000     0.941070000000    -0.5552     
O71      O      0.987760000000     0.477110000000     0.018430000000    -0.556887   
O72      O      0.985450000000     0.495780000000     0.893400000000    -0.555683   
O73      O      0.673340000000     0.847970000000     0.237430000000    -0.560325   
O74      O      0.683620000000     0.836680000000     0.362680000000    -0.560406   
O75      O      0.699080000000     0.819600000000     0.284120000000    -0.563588   
O76      O      0.657970000000     0.865260000000     0.316020000000    -0.563626   
O77      O      0.611330000000     0.820510000000     0.313890000000    -0.554484   
O78      O      0.653160000000     0.774220000000     0.286630000000    -0.550961   
O79      O      0.636550000000     0.792400000000     0.363220000000    -0.558024   
O80      O      0.627970000000     0.802080000000     0.236960000000    -0.553984   
O81      O      0.861330000000     0.680560000000     0.201000000000    -0.558918   
O82      O      0.845420000000     0.688870000000     0.076840000000    -0.557023   
O83      O      0.829640000000     0.703940000000     0.157080000000    -0.560966   
O84      O      0.877290000000     0.665490000000     0.121410000000    -0.556087   
O85      O      0.833620000000     0.617960000000     0.122970000000    -0.558468   
O86      O      0.785890000000     0.656380000000     0.158920000000    -0.557406   
O87      O      0.801820000000     0.641230000000     0.079170000000    -0.558672   
O88      O      0.817870000000     0.633100000000     0.203370000000    -0.552651   
O89      O      0.516060000000     0.028360000000     0.398850000000    -0.555087   
O90      O      0.533980000000     0.019840000000     0.522290000000    -0.554793   
O91      O      0.545070000000     0.001480000000     0.440810000000    -0.55684    
O92      O      0.505080000000     0.046790000000     0.480260000000    -0.562156   
O93      O      0.458960000000     0.001540000000     0.484260000000    -0.553301   
O94      O      0.499610000000     0.955910000000     0.446930000000    -0.553727   
O95      O      0.488060000000     0.974750000000     0.527480000000    -0.550655   
O96      O      0.470520000000     0.982590000000     0.403760000000    -0.555207   
O97      O      0.327460000000     0.173270000000     0.085120000000    -0.558086   
O98      O      0.326060000000     0.187690000000     0.211830000000    -0.5581     
O99      O      0.346930000000     0.224860000000     0.137830000000    -0.559562   
O100     O      0.306430000000     0.136210000000     0.159400000000    -0.559948   
O101     O      0.353280000000     0.139470000000     0.168510000000    -0.552414   
O102     O      0.394050000000     0.228280000000     0.143870000000    -0.552816   
O103     O      0.373460000000     0.191910000000     0.218990000000    -0.559103   
O104     O      0.374080000000     0.175830000000     0.092980000000    -0.557689   
O105     O      0.489830000000     0.526280000000     0.061240000000    -0.558317   
O106     O      0.473460000000     0.506610000000     0.935970000000    -0.560374   
O107     O      0.459710000000     0.472780000000     0.013950000000    -0.556593   
O108     O      0.504030000000     0.560500000000     0.983610000000    -0.557502   
O109     O      0.548820000000     0.558920000000     0.979500000000    -0.5623     
O110     O      0.504520000000     0.471280000000     0.007200000000    -0.563935   
O111     O      0.518450000000     0.505590000000     0.929670000000    -0.561247   
O112     O      0.533390000000     0.522300000000     0.055680000000    -0.562174   
O113     O      0.161700000000     0.856410000000     0.367650000000    -0.557369   
O114     O      0.143160000000     0.836500000000     0.242540000000    -0.556532   
O115     O      0.128040000000     0.802860000000     0.320550000000    -0.555684   
O116     O      0.177040000000     0.890150000000     0.290260000000    -0.555927   
O117     O      0.219820000000     0.885320000000     0.283730000000    -0.552218   
O118     O      0.170360000000     0.797450000000     0.312560000000    -0.553791   
O119     O      0.186150000000     0.831970000000     0.235280000000    -0.553524   
O120     O      0.203910000000     0.850430000000     0.361190000000    -0.551761   
O121     O      0.983590000000     0.518030000000     0.518990000000    -0.556724   
O122     O      0.976680000000     0.492930000000     0.395180000000    -0.552209   
O123     O      0.959030000000     0.462670000000     0.476010000000    -0.55673    
O124     O      0.001240000000     0.548680000000     0.438310000000    -0.558388   
O125     O      0.047610000000     0.550460000000     0.444100000000    -0.555163   
O126     O      0.005000000000     0.463540000000     0.479700000000    -0.552413   
O127     O      0.023080000000     0.494980000000     0.399880000000    -0.556308   
O128     O      0.029680000000     0.519120000000     0.523880000000    -0.556654   
O129     O      0.807160000000     0.158900000000     0.560290000000    -0.558033   
O130     O      0.823510000000     0.181700000000     0.684970000000    -0.556304   
O131     O      0.837360000000     0.213700000000     0.605570000000    -0.560718   
O132     O      0.793190000000     0.126760000000     0.638980000000    -0.556079   
O133     O      0.837990000000     0.125290000000     0.635050000000    -0.555932   
O134     O      0.882400000000     0.212590000000     0.602050000000    -0.555143   
O135     O      0.868160000000     0.179880000000     0.680750000000    -0.556261   
O136     O      0.852170000000     0.157790000000     0.555690000000    -0.554035   
O137     O      0.647160000000     0.846670000000     0.857760000000    -0.562702   
O138     O      0.647170000000     0.827490000000     0.733130000000    -0.562297   
O139     O      0.625530000000     0.794560000000     0.811670000000    -0.562681   
O140     O      0.669560000000     0.881720000000     0.780390000000    -0.561121   
O141     O      0.715440000000     0.882510000000     0.786920000000    -0.559141   
O142     O      0.671460000000     0.795780000000     0.821640000000    -0.557973   
O143     O      0.692360000000     0.827630000000     0.742350000000    -0.555518   
O144     O      0.694320000000     0.850290000000     0.866300000000    -0.556245   
S1       S      0.739180000000     0.068290000000     0.619860000000    -0.0264796  
S2       S      0.917190000000     0.427380000000     0.544670000000    -0.0275803  
S3       S      0.080420000000     0.762910000000     0.377580000000    -0.0231916  
S4       S      0.595670000000     0.780460000000     0.898530000000    -0.0382561  
S5       S      0.186030000000     0.949500000000     0.311090000000    -0.0267998  
S6       S      0.516080000000     0.454800000000     0.096060000000    -0.0384747  
S7       S      0.726650000000     0.824410000000     0.671830000000    -0.0254681  
S8       S      0.609790000000     0.767140000000     0.158300000000    -0.0224664  
S9       S      0.657020000000     0.719940000000     0.305150000000    -0.024488   
S10      S      0.584760000000     0.004980000000     0.371800000000    -0.0241094  
S11      S      0.062030000000     0.581310000000     0.831740000000    -0.0264025  
S12      S      0.936890000000     0.461700000000     0.323280000000    -0.0243613  
S13      S      0.932600000000     0.663550000000     0.139600000000    -0.0258002  
S14      S      0.421730000000     0.205700000000     0.784810000000    -0.024439   
S15      S      0.280810000000     0.151220000000     0.519760000000    -0.0245714  
S16      S      0.436020000000     0.185840000000     0.563420000000    -0.0275498  
S17      S      0.014750000000     0.412220000000     0.961430000000    -0.0257507  
S18      S      0.350660000000     0.277690000000     0.650660000000    -0.0241584  
S19      S      0.472160000000     0.426380000000     0.629690000000    -0.0246323  
S20      S      0.541130000000     0.570720000000     0.373000000000    -0.0262654  
S21      S      0.855080000000     0.246420000000     0.992970000000    -0.0253599  
S22      S      0.789750000000     0.189500000000     0.257780000000    -0.0260473  
S23      S      0.195900000000     0.409370000000     0.416560000000    -0.0156142  
S24      S      0.184640000000     0.281790000000     0.172980000000    -0.025037   
S25      S      0.064580000000     0.241000000000     0.301500000000    -0.0262037  
S26      S      0.239330000000     0.426280000000     0.384550000000    -0.0168411  
S27      S      0.479100000000     0.933630000000     0.598240000000    -0.0271667  
S28      S      0.454890000000     0.936570000000     0.099250000000    -0.0249327  
S29      S      0.582510000000     0.990950000000     0.041380000000    -0.0223457  
S30      S      0.201320000000     0.916450000000     0.676380000000    -0.0263281  
S31      S      0.119500000000     0.860650000000     0.936210000000    -0.026059   
S32      S      0.242750000000     0.830410000000     0.889520000000    -0.0291525  
S33      S      0.821110000000     0.726350000000     0.768230000000    -0.0234324  
S34      S      0.807360000000     0.592590000000     0.275130000000    -0.024666   
S35      S      0.730180000000     0.567160000000     0.651140000000    -0.0267828  
S36      S      0.931200000000     0.767610000000     0.630110000000    -0.0257411  
V1       V      0.830650000000     0.642800000000     0.645100000000     1.39359    
V2       V      0.830490000000     0.691680000000     0.634420000000     1.39609    
V3       V      0.166310000000     0.815020000000     0.799170000000     1.39335    
V4       V      0.165380000000     0.863830000000     0.804530000000     1.39072    
V5       V      0.499390000000     0.976460000000     0.965970000000     1.40465    
V6       V      0.503200000000     0.027560000000     0.960040000000     1.37808    
V7       V      0.166550000000     0.312480000000     0.304410000000     1.4047     
V8       V      0.169850000000     0.363140000000     0.294800000000     1.40873    
V9       V      0.839470000000     0.150650000000     0.116690000000     1.39085    
V10      V      0.835900000000     0.197900000000     0.125200000000     1.39613    
V11      V      0.491320000000     0.469730000000     0.493670000000     1.38845    
V12      V      0.491000000000     0.518930000000     0.498110000000     1.40431    
V13      V      0.208220000000     0.373600000000     0.799490000000     1.39541    
V14      V      0.158990000000     0.324050000000     0.801090000000     1.41144    
V15      V      0.376330000000     0.203140000000     0.652590000000     1.41444    
V16      V      0.326600000000     0.154400000000     0.651280000000     1.39431    
V17      V      0.033550000000     0.533900000000     0.964080000000     1.39975    
V18      V      0.984820000000     0.484550000000     0.955670000000     1.39872    
V19      V      0.680310000000     0.844170000000     0.300070000000     1.41234    
V20      V      0.630360000000     0.795520000000     0.300150000000     1.39398    
V21      V      0.855130000000     0.686600000000     0.138930000000     1.4042     
V22      V      0.808080000000     0.635270000000     0.141270000000     1.39915    
V23      V      0.526840000000     0.025900000000     0.460370000000     1.40505    
V24      V      0.477460000000     0.976900000000     0.465840000000     1.38692    
V25      V      0.324880000000     0.180380000000     0.148170000000     1.40399    
V26      V      0.375590000000     0.184000000000     0.156330000000     1.38924    
V27      V      0.479980000000     0.516690000000     0.998750000000     1.39593    
V28      V      0.528180000000     0.514700000000     0.992410000000     1.42187    
V29      V      0.150820000000     0.846680000000     0.305420000000     1.40871    
V30      V      0.196790000000     0.841130000000     0.297860000000     1.37921    
V31      V      0.978330000000     0.505540000000     0.456850000000     1.4044     
V32      V      0.028180000000     0.507080000000     0.462060000000     1.39041    
V33      V      0.813560000000     0.170340000000     0.622690000000     1.40574    
V34      V      0.861960000000     0.168820000000     0.618150000000     1.38794    
V35      V      0.645650000000     0.837770000000     0.795030000000     1.41995    
V36      V      0.695300000000     0.839190000000     0.804520000000     1.39922    


