data_structure

_audit_creation_method RASPA-1.0
_audit_creation_date 2023-5-23
_audit_author_name 'Poobodin Mano'

_cell_length_a    44.7231
_cell_length_b    44.7175
_cell_length_c    29.8887
_cell_angle_alpha 90
_cell_angle_beta  90
_cell_angle_gamma 90
_cell_volume      59774.6

_symmetry_cell_setting          triclinic
_symmetry_space_group_name_Hall 'P 1'
_symmetry_space_group_name_H-M  'P 1'
_symmetry_Int_Tables_number     1

_symmetry_equiv_pos_as_xyz 'x,y,z'

loop_
_atom_site_label
_atom_site_type_symbol
_atom_site_fract_x
_atom_site_fract_y
_atom_site_fract_z
_atom_site_charge
C1       C      0.502390000000     0.832430000000     0.084780000000     0.478898   
C2       C      0.501790000000     0.832070000000     0.914960000000     0.478915   
C3       C      0.445440000000     0.832570000000     0.000270000000     0.478913   
C4       C      0.558940000000     0.831930000000     0.999420000000     0.478513   
C5       C      0.498050000000     0.831970000000     0.584800000000     0.478986   
C6       C      0.499040000000     0.832330000000     0.414980000000     0.478895   
C7       C      0.441700000000     0.832070000000     0.499050000000     0.478717   
C8       C      0.555190000000     0.832240000000     0.500740000000     0.478926   
C9       C      0.833680000000     0.499380000000     0.910290000000     0.479237   
C10      C      0.832740000000     0.499390000000     0.080110000000     0.479544   
C11      C      0.831620000000     0.442630000000     0.995340000000     0.479044   
C12      C      0.834780000000     0.556140000000     0.995370000000     0.479135   
C13      C      0.832600000000     0.499980000000     0.410280000000     0.479408   
C14      C      0.833850000000     0.498830000000     0.580100000000     0.479508   
C15      C      0.834560000000     0.442650000000     0.494250000000     0.479329   
C16      C      0.831890000000     0.556170000000     0.496050000000     0.479012   
C17      C      0.498400000000     0.166840000000     0.910980000000     0.478803   
C18      C      0.498180000000     0.166460000000     0.080810000000     0.478517   
C19      C      0.441440000000     0.166940000000     0.995900000000     0.478697   
C20      C      0.554930000000     0.166330000000     0.996020000000     0.47883    
C21      C      0.502340000000     0.167030000000     0.580810000000     0.478738   
C22      C      0.501260000000     0.166650000000     0.411000000000     0.478828   
C23      C      0.558650000000     0.167080000000     0.494930000000     0.478528   
C24      C      0.445150000000     0.166630000000     0.496870000000     0.478663   
C25      C      0.167170000000     0.500140000000     0.088350000000     0.478737   
C26      C      0.167280000000     0.501060000000     0.918540000000     0.479147   
C27      C      0.166700000000     0.443880000000     0.002660000000     0.478772   
C28      C      0.167770000000     0.557380000000     0.004000000000     0.478703   
C29      C      0.166970000000     0.498890000000     0.418600000000     0.478681   
C30      C      0.167080000000     0.500360000000     0.588400000000     0.478681   
C31      C      0.166560000000     0.556340000000     0.502300000000     0.478874   
C32      C      0.167480000000     0.442850000000     0.504790000000     0.478622   
C33      C      0.891900000000     0.833010000000     0.998450000000     0.478999   
C34      C      0.778400000000     0.831540000000     0.998560000000     0.478343   
C35      C      0.836060000000     0.775520000000     0.998140000000     0.478714   
C36      C      0.834360000000     0.889020000000     0.998720000000     0.478764   
C37      C      0.888060000000     0.832110000000     0.500420000000     0.478869   
C38      C      0.774570000000     0.832550000000     0.501460000000     0.478771   
C39      C      0.830910000000     0.775560000000     0.499920000000     0.478865   
C40      C      0.831540000000     0.889070000000     0.501980000000     0.478838   
C41      C      0.831830000000     0.109730000000     0.998330000000     0.478827   
C42      C      0.830190000000     0.223230000000     0.997790000000     0.478723   
C43      C      0.774320000000     0.165770000000     0.997640000000     0.478997   
C44      C      0.887800000000     0.167220000000     0.998460000000     0.478708   
C45      C      0.834260000000     0.109770000000     0.500720000000     0.479078   
C46      C      0.835560000000     0.223280000000     0.496870000000     0.479037   
C47      C      0.778070000000     0.167110000000     0.496910000000     0.478747   
C48      C      0.891560000000     0.165920000000     0.500670000000     0.479561   
C49      C      0.165450000000     0.110960000000     0.997850000000     0.478726   
C50      C      0.165180000000     0.224460000000     0.998980000000     0.478835   
C51      C      0.108510000000     0.167600000000     0.998600000000     0.478663   
C52      C      0.222010000000     0.167820000000     0.998090000000     0.478814   
C53      C      0.168570000000     0.109950000000     0.499710000000     0.479229   
C54      C      0.169180000000     0.223450000000     0.503430000000     0.479167   
C55      C      0.225740000000     0.166440000000     0.500890000000     0.479162   
C56      C      0.112230000000     0.166950000000     0.502200000000     0.479287   
C57      C      0.112530000000     0.833590000000     0.999380000000     0.478867   
C58      C      0.226020000000     0.833530000000     0.999940000000     0.478663   
C59      C      0.169230000000     0.776810000000     0.000760000000     0.479088   
C60      C      0.169220000000     0.890310000000     0.998660000000     0.479051   
C61      C      0.108770000000     0.832800000000     0.498450000000     0.478629   
C62      C      0.222280000000     0.832180000000     0.497810000000     0.478638   
C63      C      0.165240000000     0.775760000000     0.498640000000     0.478885   
C64      C      0.165970000000     0.889260000000     0.497590000000     0.478823   
C65      C      0.159910000000     0.966760000000     0.458590000000    -0.0892746  
C66      C      0.167230000000     0.982870000000     0.497410000000     0.034353   
C67      C      0.174320000000     0.966550000000     0.536130000000    -0.0895182  
C68      C      0.173330000000     0.935360000000     0.535730000000     0.0742529  
C69      C      0.160060000000     0.935510000000     0.459020000000     0.0739439  
C70      C      0.167400000000     0.016340000000     0.497720000000     0.0343963  
C71      C      0.173670000000     0.032800000000     0.458790000000    -0.0892125  
C72      C      0.173490000000     0.064060000000     0.459830000000     0.0739449  
C73      C      0.162240000000     0.063500000000     0.537250000000     0.0744503  
C74      C      0.161310000000     0.032310000000     0.537120000000    -0.0896495  
C75      C      0.174970000000     0.967980000000     0.036690000000    -0.0894087  
C76      C      0.167800000000     0.983910000000     0.997660000000     0.0342977  
C77      C      0.161400000000     0.967430000000     0.958820000000    -0.0893658  
C78      C      0.162520000000     0.936220000000     0.959530000000     0.0740578  
C79      C      0.175000000000     0.936760000000     0.036530000000     0.0742075  
C80      C      0.166970000000     0.017360000000     0.997550000000     0.0342789  
C81      C      0.159780000000     0.033410000000     0.036470000000    -0.0893735  
C82      C      0.159720000000     0.064630000000     0.036080000000     0.0742577  
C83      C      0.172240000000     0.064930000000     0.959090000000     0.0739218  
C84      C      0.173380000000     0.033710000000     0.958600000000    -0.0893485  
C85      C      0.969240000000     0.158990000000     0.463380000000    -0.0896424  
C86      C      0.985160000000     0.166060000000     0.502460000000     0.0344455  
C87      C      0.968640000000     0.172680000000     0.541200000000    -0.0892487  
C88      C      0.937400000000     0.171910000000     0.540290000000     0.0740667  
C89      C      0.938050000000     0.159410000000     0.463310000000     0.0745545  
C90      C      0.018630000000     0.166580000000     0.502630000000     0.0343741  
C91      C      0.034930000000     0.160550000000     0.541780000000    -0.0892434  
C92      C      0.066160000000     0.161330000000     0.541250000000     0.0741929  
C93      C      0.065980000000     0.172650000000     0.463840000000     0.0743948  
C94      C      0.034780000000     0.173030000000     0.463500000000    -0.0894869  
C95      C      0.965190000000     0.160890000000     0.037710000000    -0.0892409  
C96      C      0.981420000000     0.167690000000     0.998800000000     0.0342721  
C97      C      0.965230000000     0.174480000000     0.959850000000    -0.0894215  
C98      C      0.934020000000     0.173840000000     0.960200000000     0.0740802  
C99      C      0.933960000000     0.161340000000     0.037190000000     0.0740364  
C100     C      0.014890000000     0.167640000000     0.998790000000     0.0342328  
C101     C      0.031130000000     0.174330000000     0.037740000000    -0.0892641  
C102     C      0.062360000000     0.173750000000     0.037250000000     0.0740359  
C103     C      0.062290000000     0.161400000000     0.960200000000     0.0740582  
C104     C      0.031070000000     0.160890000000     0.959810000000    -0.0893378  
C105     C      0.965290000000     0.839220000000     0.460780000000    -0.0893448  
C106     C      0.981690000000     0.832380000000     0.499510000000     0.0342925  
C107     C      0.965670000000     0.825380000000     0.538550000000    -0.08939    
C108     C      0.934440000000     0.825780000000     0.538400000000     0.0739843  
C109     C      0.934070000000     0.838570000000     0.461510000000     0.0739847  
C110     C      0.015150000000     0.832560000000     0.499210000000     0.034342   
C111     C      0.031230000000     0.825850000000     0.460120000000    -0.0894121  
C112     C      0.062450000000     0.826500000000     0.460300000000     0.0740291  
C113     C      0.062700000000     0.839040000000     0.537280000000     0.0740096  
C114     C      0.031480000000     0.839440000000     0.537990000000    -0.0893946  
C115     C      0.839160000000     0.966320000000     0.541540000000    -0.0892258  
C116     C      0.832340000000     0.982690000000     0.502760000000     0.0343582  
C117     C      0.824900000000     0.966640000000     0.463950000000    -0.0895646  
C118     C      0.825120000000     0.935440000000     0.464180000000     0.0742806  
C119     C      0.838270000000     0.935080000000     0.540930000000     0.0738668  
C120     C      0.833110000000     0.016150000000     0.502580000000     0.0343655  
C121     C      0.827110000000     0.032740000000     0.541480000000    -0.0891987  
C122     C      0.828110000000     0.063980000000     0.540510000000     0.0739503  
C123     C      0.839720000000     0.063190000000     0.463220000000     0.0744489  
C124     C      0.839820000000     0.031990000000     0.463290000000    -0.0896345  
C125     C      0.969280000000     0.826780000000     0.037600000000    -0.0894322  
C126     C      0.985490000000     0.833600000000     0.998700000000     0.0343147  
C127     C      0.969310000000     0.840270000000     0.959690000000    -0.0893773  
C128     C      0.938080000000     0.839570000000     0.960040000000     0.0740432  
C129     C      0.938060000000     0.827150000000     0.037070000000     0.0742492  
C130     C      0.018940000000     0.833700000000     0.998830000000     0.0343254  
C131     C      0.035050000000     0.840710000000     0.037770000000    -0.0893563  
C132     C      0.066260000000     0.840150000000     0.037520000000     0.0741761  
C133     C      0.066440000000     0.827190000000     0.960690000000     0.0740754  
C134     C      0.035220000000     0.826700000000     0.960070000000    -0.089476   
C135     C      0.840170000000     0.966520000000     0.037750000000    -0.0892014  
C136     C      0.833260000000     0.982650000000     0.998780000000     0.0342388  
C137     C      0.826660000000     0.966360000000     0.959850000000    -0.0894333  
C138     C      0.827540000000     0.935150000000     0.960290000000     0.0740646  
C139     C      0.839970000000     0.935280000000     0.037320000000     0.0739548  
C140     C      0.832950000000     0.016110000000     0.998710000000     0.0342788  
C141     C      0.825900000000     0.032300000000     0.037550000000    -0.0893078  
C142     C      0.826080000000     0.063530000000     0.037000000000     0.0740147  
C143     C      0.838770000000     0.063550000000     0.960070000000     0.0740794  
C144     C      0.839660000000     0.032330000000     0.959750000000    -0.0893704  
C145     C      0.139600000000     0.633610000000     0.509260000000    -0.0909649  
C146     C      0.165760000000     0.649570000000     0.500300000000     0.0346296  
C147     C      0.192190000000     0.633900000000     0.491970000000    -0.0909381  
C148     C      0.192150000000     0.602680000000     0.493310000000     0.0740347  
C149     C      0.140170000000     0.602390000000     0.509240000000     0.0740159  
C150     C      0.165500000000     0.682520000000     0.499790000000     0.0346245  
C151     C      0.171060000000     0.698130000000     0.460190000000    -0.0909379  
C152     C      0.170460000000     0.729360000000     0.460240000000     0.0739041  
C153     C      0.160050000000     0.729760000000     0.538090000000     0.0740718  
C154     C      0.159750000000     0.698540000000     0.538960000000    -0.0910083  
C155     C      0.141730000000     0.365160000000     0.498010000000    -0.0909795  
C156     C      0.168210000000     0.349620000000     0.506440000000     0.0346326  
C157     C      0.194410000000     0.365680000000     0.514620000000    -0.0908798  
C158     C      0.193850000000     0.396910000000     0.513540000000     0.0738489  
C159     C      0.141780000000     0.396390000000     0.498230000000     0.07403    
C160     C      0.168580000000     0.316670000000     0.505840000000     0.0346866  
C161     C      0.163710000000     0.301260000000     0.465890000000    -0.0912175  
C162     C      0.164390000000     0.270060000000     0.465610000000     0.0742029  
C163     C      0.173560000000     0.269230000000     0.543800000000     0.0739138  
C164     C      0.173750000000     0.300480000000     0.545040000000    -0.0908793  
C165     C      0.142140000000     0.635060000000     0.012060000000    -0.0908758  
C166     C      0.168560000000     0.650620000000     0.003210000000     0.0346822  
C167     C      0.194740000000     0.634550000000     0.994850000000    -0.0910148  
C168     C      0.194180000000     0.603330000000     0.995910000000     0.0738953  
C169     C      0.142190000000     0.603830000000     0.011760000000     0.0740288  
C170     C      0.168800000000     0.683580000000     0.002590000000     0.0347515  
C171     C      0.174740000000     0.699020000000     0.962960000000    -0.0911089  
C172     C      0.174450000000     0.730250000000     0.962810000000     0.0740107  
C173     C      0.163670000000     0.730980000000     0.040540000000     0.0740246  
C174     C      0.163050000000     0.699770000000     0.041600000000    -0.0909979  
C175     C      0.192310000000     0.366160000000     0.009730000000    -0.0909609  
C176     C      0.165890000000     0.350650000000     0.000690000000     0.0347071  
C177     C      0.139740000000     0.366770000000     0.992340000000    -0.0910012  
C178     C      0.140310000000     0.397990000000     0.993700000000     0.0739874  
C179     C      0.192270000000     0.397390000000     0.009720000000     0.0740463  
C180     C      0.165610000000     0.317700000000     0.000210000000     0.034715   
C181     C      0.159640000000     0.302150000000     0.960670000000    -0.0910028  
C182     C      0.159920000000     0.270910000000     0.960700000000     0.0739257  
C183     C      0.170720000000     0.270400000000     0.038430000000     0.0741996  
C184     C      0.171350000000     0.301610000000     0.039310000000    -0.0910785  
C185     C      0.193280000000     0.494380000000     0.802700000000    -0.0895427  
C186     C      0.167270000000     0.501270000000     0.778490000000     0.0342497  
C187     C      0.141300000000     0.508200000000     0.802760000000    -0.0894497  
C188     C      0.141600000000     0.507650000000     0.849470000000     0.0739614  
C189     C      0.193000000000     0.494880000000     0.849410000000     0.0739776  
C190     C      0.167200000000     0.501140000000     0.728440000000     0.0342978  
C191     C      0.193180000000     0.507900000000     0.704080000000    -0.0894976  
C192     C      0.192840000000     0.507150000000     0.657370000000     0.0739456  
C193     C      0.141420000000     0.494490000000     0.657620000000     0.0740469  
C194     C      0.141170000000     0.494190000000     0.704340000000    -0.0895534  
C195     C      0.141040000000     0.492610000000     0.204020000000    -0.089408   
C196     C      0.167050000000     0.499160000000     0.228430000000     0.0341961  
C197     C      0.193120000000     0.506030000000     0.204320000000    -0.0893826  
C198     C      0.192870000000     0.505810000000     0.157600000000     0.073851   
C199     C      0.141370000000     0.493490000000     0.157310000000     0.0739737  
C200     C      0.166990000000     0.498900000000     0.278510000000     0.034213   
C201     C      0.140930000000     0.505540000000     0.302770000000    -0.0894468  
C202     C      0.141200000000     0.504910000000     0.349480000000     0.073975   
C203     C      0.192690000000     0.492540000000     0.349500000000     0.0738274  
C204     C      0.193000000000     0.492080000000     0.302770000000    -0.0893868  
C205     C      0.367590000000     0.192710000000     0.489900000000    -0.0909133  
C206     C      0.351930000000     0.166400000000     0.499010000000     0.0345958  
C207     C      0.367890000000     0.140150000000     0.507400000000    -0.0908099  
C208     C      0.399110000000     0.140520000000     0.505980000000     0.0739251  
C209     C      0.398820000000     0.192480000000     0.489850000000     0.0740402  
C210     C      0.318970000000     0.166310000000     0.499540000000     0.0346848  
C211     C      0.302900000000     0.171970000000     0.460400000000    -0.0910586  
C212     C      0.271690000000     0.171540000000     0.461330000000     0.0741246  
C213     C      0.272180000000     0.161130000000     0.539170000000     0.0740033  
C214     C      0.303420000000     0.160660000000     0.539170000000    -0.0909655  
C215     C      0.636000000000     0.193780000000     0.502110000000    -0.090946   
C216     C      0.651900000000     0.167480000000     0.493820000000     0.0345337  
C217     C      0.636160000000     0.141070000000     0.485660000000    -0.0907654  
C218     C      0.604930000000     0.141250000000     0.486580000000     0.0738909  
C219     C      0.604780000000     0.193340000000     0.501720000000     0.0739491  
C220     C      0.684840000000     0.167510000000     0.494430000000     0.0345649  
C221     C      0.700230000000     0.172500000000     0.534370000000    -0.0910219  
C222     C      0.731440000000     0.172000000000     0.534670000000     0.0740617  
C223     C      0.732320000000     0.162850000000     0.456470000000     0.0738707  
C224     C      0.701080000000     0.162490000000     0.455220000000    -0.0907836  
C225     C      0.363910000000     0.141070000000     0.005290000000    -0.0908137  
C226     C      0.348200000000     0.167480000000     0.997000000000     0.0345244  
C227     C      0.364130000000     0.193700000000     0.988240000000    -0.090874   
C228     C      0.395360000000     0.193210000000     0.988500000000     0.0739509  
C229     C      0.395140000000     0.141190000000     0.004180000000     0.0740572  
C230     C      0.315250000000     0.167660000000     0.997350000000     0.0344959  
C231     C      0.299300000000     0.173690000000     0.958220000000    -0.0909127  
C232     C      0.268070000000     0.173320000000     0.958940000000     0.0739261  
C233     C      0.268330000000     0.162300000000     0.036610000000     0.0739728  
C234     C      0.299560000000     0.161760000000     0.036780000000    -0.0907457  
C235     C      0.632210000000     0.139620000000     0.987620000000    -0.0909769  
C236     C      0.648150000000     0.165810000000     0.996540000000     0.0345746  
C237     C      0.632460000000     0.192180000000     0.005220000000    -0.0909245  
C238     C      0.601240000000     0.192050000000     0.004330000000     0.0742081  
C239     C      0.600990000000     0.140110000000     0.988100000000     0.074069   
C240     C      0.681100000000     0.165620000000     0.996860000000     0.0345922  
C241     C      0.697060000000     0.159730000000     0.957680000000    -0.090994   
C242     C      0.728290000000     0.160160000000     0.958420000000     0.0740243  
C243     C      0.727980000000     0.170930000000     0.036160000000     0.0741101  
C244     C      0.696760000000     0.171410000000     0.036340000000    -0.0909423  
C245     C      0.492980000000     0.141020000000     0.794880000000    -0.0894749  
C246     C      0.500230000000     0.167050000000     0.770930000000     0.0342156  
C247     C      0.506680000000     0.193040000000     0.795470000000    -0.0894789  
C248     C      0.505450000000     0.192690000000     0.842160000000     0.0739452  
C249     C      0.492820000000     0.141260000000     0.841610000000     0.0739379  
C250     C      0.501020000000     0.167100000000     0.720880000000     0.0342168  
C251     C      0.508180000000     0.141100000000     0.696820000000    -0.0894516  
C252     C      0.508220000000     0.141400000000     0.650090000000     0.0738901  
C253     C      0.495680000000     0.192850000000     0.649760000000     0.0739459  
C254     C      0.494570000000     0.193140000000     0.696450000000    -0.089482   
C255     C      0.492160000000     0.192390000000     0.196760000000    -0.0894062  
C256     C      0.499170000000     0.166370000000     0.220880000000     0.034214   
C257     C      0.505670000000     0.140330000000     0.196480000000    -0.0894198  
C258     C      0.504710000000     0.140630000000     0.149780000000     0.0739533  
C259     C      0.492290000000     0.192110000000     0.150040000000     0.0739805  
C260     C      0.499760000000     0.166420000000     0.270940000000     0.0342522  
C261     C      0.506820000000     0.192480000000     0.294940000000    -0.0894564  
C262     C      0.506810000000     0.192250000000     0.341660000000     0.0739731  
C263     C      0.494360000000     0.140780000000     0.342140000000     0.0740052  
C264     C      0.493280000000     0.140420000000     0.295440000000    -0.0894672  
C265     C      0.840860000000     0.300210000000     0.454970000000    -0.0908278  
C266     C      0.836670000000     0.316500000000     0.494320000000     0.0345907  
C267     C      0.832260000000     0.301210000000     0.534480000000    -0.0911576  
C268     C      0.832320000000     0.270000000000     0.534790000000     0.0740697  
C269     C      0.840180000000     0.268970000000     0.456290000000     0.073856   
C270     C      0.836210000000     0.349420000000     0.493520000000     0.0346292  
C271     C      0.862580000000     0.365660000000     0.487540000000    -0.0907686  
C272     C      0.861720000000     0.396910000000     0.488240000000     0.0738106  
C273     C      0.809170000000     0.395970000000     0.499080000000     0.0742458  
C274     C      0.809340000000     0.364760000000     0.499470000000    -0.0912629  
C275     C      0.835220000000     0.698450000000     0.458830000000    -0.090957   
C276     C      0.829870000000     0.682330000000     0.498030000000     0.0345251  
C277     C      0.824760000000     0.697820000000     0.537850000000    -0.0908627  
C278     C      0.825490000000     0.729060000000     0.538010000000     0.0738418  
C279     C      0.835110000000     0.729670000000     0.459930000000     0.0739579  
C280     C      0.830240000000     0.649390000000     0.497500000000     0.0346853  
C281     C      0.803950000000     0.633110000000     0.503950000000    -0.0908585  
C282     C      0.804780000000     0.601870000000     0.502810000000     0.0738606  
C283     C      0.857200000000     0.602860000000     0.490610000000     0.0742912  
C284     C      0.857030000000     0.634070000000     0.490510000000    -0.0912196  
C285     C      0.823660000000     0.300490000000     0.957890000000    -0.0909575  
C286     C      0.829020000000     0.316470000000     0.997210000000     0.0345186  
C287     C      0.834540000000     0.300830000000     0.036790000000    -0.0908684  
C288     C      0.834400000000     0.269600000000     0.036550000000     0.0739635  
C289     C      0.824400000000     0.269270000000     0.958580000000     0.0739617  
C290     C      0.829540000000     0.349410000000     0.996750000000     0.0345377  
C291     C      0.803420000000     0.365720000000     0.988960000000    -0.0907095  
C292     C      0.804390000000     0.396970000000     0.989110000000     0.0737337  
C293     C      0.856640000000     0.395910000000     0.002850000000     0.0743717  
C294     C      0.856300000000     0.364720000000     0.004000000000    -0.0910455  
C295     C      0.863060000000     0.633060000000     0.989900000000    -0.0908363  
C296     C      0.836830000000     0.649350000000     0.996920000000     0.0345623  
C297     C      0.809980000000     0.634040000000     0.003340000000    -0.0910323  
C298     C      0.809660000000     0.602850000000     0.002170000000     0.0742394  
C299     C      0.862080000000     0.601810000000     0.989980000000     0.0738723  
C300     C      0.837330000000     0.682290000000     0.997430000000     0.0344884  
C301     C      0.831820000000     0.697890000000     0.037050000000    -0.0908818  
C302     C      0.831910000000     0.729120000000     0.036850000000     0.0739446  
C303     C      0.841870000000     0.729520000000     0.958860000000     0.0738748  
C304     C      0.842630000000     0.698290000000     0.958120000000    -0.0908926  
C305     C      0.860120000000     0.492160000000     0.794710000000    -0.0894325  
C306     C      0.834230000000     0.499050000000     0.770230000000     0.0342736  
C307     C      0.808210000000     0.506220000000     0.794250000000    -0.0895648  
C308     C      0.808330000000     0.505800000000     0.840950000000     0.0741598  
C309     C      0.859670000000     0.492860000000     0.841440000000     0.07401    
C310     C      0.834290000000     0.498740000000     0.720160000000     0.0342888  
C311     C      0.860380000000     0.505050000000     0.695770000000    -0.0893644  
C312     C      0.859990000000     0.504440000000     0.649030000000     0.0740099  
C313     C      0.808360000000     0.492660000000     0.649350000000     0.0742515  
C314     C      0.808160000000     0.492170000000     0.696030000000    -0.0896961  
C315     C      0.806140000000     0.493400000000     0.294640000000    -0.0893608  
C316     C      0.832150000000     0.500070000000     0.270240000000     0.034305   
C317     C      0.858180000000     0.507000000000     0.294360000000    -0.0896171  
C318     C      0.858000000000     0.506470000000     0.341050000000     0.0742901  
C319     C      0.806520000000     0.494050000000     0.341370000000     0.0740606  
C320     C      0.832210000000     0.499750000000     0.220160000000     0.034351   
C321     C      0.858400000000     0.493240000000     0.196120000000    -0.0896377  
C322     C      0.858260000000     0.493670000000     0.149420000000     0.0743761  
C323     C      0.806590000000     0.505230000000     0.148940000000     0.0742086  
C324     C      0.806140000000     0.505960000000     0.195660000000    -0.089474   
C325     C      0.364270000000     0.805610000000     0.506350000000    -0.0909228  
C326     C      0.348460000000     0.831920000000     0.497730000000     0.0345717  
C327     C      0.364290000000     0.858270000000     0.489480000000    -0.0908901  
C328     C      0.395510000000     0.858010000000     0.490560000000     0.073934   
C329     C      0.395500000000     0.805960000000     0.506070000000     0.0739622  
C330     C      0.315510000000     0.831910000000     0.497660000000     0.034617   
C331     C      0.299700000000     0.826350000000     0.537070000000    -0.0909698  
C332     C      0.268480000000     0.826860000000     0.536640000000     0.0739901  
C333     C      0.268460000000     0.837130000000     0.458740000000     0.073867   
C334     C      0.299700000000     0.837520000000     0.458260000000    -0.0908782  
C335     C      0.632510000000     0.858640000000     0.510520000000    -0.0909851  
C336     C      0.648400000000     0.832370000000     0.502000000000     0.0346593  
C337     C      0.632680000000     0.806050000000     0.493180000000    -0.0909447  
C338     C      0.601460000000     0.806300000000     0.493480000000     0.0739817  
C339     C      0.601290000000     0.858280000000     0.509470000000     0.0741394  
C340     C      0.681350000000     0.832470000000     0.501930000000     0.0346336  
C341     C      0.697090000000     0.827130000000     0.462390000000    -0.091088   
C342     C      0.728300000000     0.827630000000     0.462720000000     0.074171   
C343     C      0.728460000000     0.837480000000     0.540730000000     0.0739335  
C344     C      0.697230000000     0.837880000000     0.541340000000    -0.0909024  
C345     C      0.303360000000     0.827910000000     0.039720000000    -0.0909827  
C346     C      0.319260000000     0.833230000000     0.000310000000     0.0346763  
C347     C      0.303530000000     0.838690000000     0.960780000000    -0.0910119  
C348     C      0.272300000000     0.838360000000     0.961130000000     0.0739291  
C349     C      0.272130000000     0.828480000000     0.039130000000     0.0740189  
C350     C      0.352210000000     0.833080000000     0.000410000000     0.0346954  
C351     C      0.368160000000     0.859280000000     0.991730000000    -0.0910007  
C352     C      0.399380000000     0.858820000000     0.992410000000     0.0739041  
C353     C      0.399110000000     0.806840000000     0.008440000000     0.0739843  
C354     C      0.367880000000     0.806700000000     0.009120000000    -0.0908957  
C355     C      0.700940000000     0.825640000000     0.959330000000    -0.0909292  
C356     C      0.685150000000     0.831270000000     0.998750000000     0.034491   
C357     C      0.701000000000     0.836850000000     0.038130000000    -0.0908217  
C358     C      0.732230000000     0.836420000000     0.037610000000     0.0739661  
C359     C      0.732170000000     0.826110000000     0.959740000000     0.0739032  
C360     C      0.652190000000     0.831430000000     0.998800000000     0.0345131  
C361     C      0.636220000000     0.805190000000     0.990430000000    -0.0909313  
C362     C      0.604990000000     0.805670000000     0.991290000000     0.0739402  
C363     C      0.605300000000     0.857700000000     0.006840000000     0.0740002  
C364     C      0.636530000000     0.857840000000     0.007330000000    -0.0907679  
C365     C      0.505670000000     0.805830000000     0.700440000000    -0.0894431  
C366     C      0.499220000000     0.831870000000     0.724860000000     0.0342132  
C367     C      0.492130000000     0.857890000000     0.700790000000    -0.0894722  
C368     C      0.492150000000     0.857600000000     0.654060000000     0.0739914  
C369     C      0.504620000000     0.806130000000     0.653740000000     0.0739218  
C370     C      0.499960000000     0.831900000000     0.774910000000     0.0342607  
C371     C      0.493450000000     0.805920000000     0.799420000000    -0.0895262  
C372     C      0.494670000000     0.806250000000     0.846110000000     0.0739294  
C373     C      0.507360000000     0.857670000000     0.845610000000     0.0739367  
C374     C      0.507210000000     0.857920000000     0.798880000000    -0.0894668  
C375     C      0.493570000000     0.806470000000     0.298920000000    -0.0894495  
C376     C      0.500720000000     0.832500000000     0.274920000000     0.0342296  
C377     C      0.507210000000     0.858500000000     0.299420000000    -0.0894605  
C378     C      0.506060000000     0.858160000000     0.346120000000     0.0739807  
C379     C      0.493520000000     0.806710000000     0.345640000000     0.0739501  
C380     C      0.501360000000     0.832540000000     0.224850000000     0.0342609  
C381     C      0.508350000000     0.806500000000     0.200760000000    -0.0894908  
C382     C      0.508250000000     0.806780000000     0.154030000000     0.0739501  
C383     C      0.495910000000     0.858280000000     0.153740000000     0.0740046  
C384     C      0.494930000000     0.858590000000     0.200440000000    -0.0894914  
H1       H      0.181000000000     0.977600000000     0.566740000000     0.0487963  
H2       H      0.178920000000     0.923810000000     0.566520000000     0.0218128  
H3       H      0.154220000000     0.924050000000     0.428260000000     0.0217998  
H4       H      0.153600000000     0.978030000000     0.427990000000     0.0488635  
H5       H      0.179180000000     0.021810000000     0.427620000000     0.0487432  
H6       H      0.178490000000     0.075800000000     0.428990000000     0.0216654  
H7       H      0.157450000000     0.074750000000     0.568580000000     0.0216972  
H8       H      0.155450000000     0.021000000000     0.567880000000     0.0488961  
H9       H      0.155050000000     0.978380000000     0.927970000000     0.0488472  
H10      H      0.157340000000     0.924490000000     0.928730000000     0.0218115  
H11      H      0.180590000000     0.925490000000     0.067550000000     0.0218317  
H12      H      0.180920000000     0.979370000000     0.067360000000     0.0488084  
H13      H      0.153820000000     0.022110000000     0.067210000000     0.0489022  
H14      H      0.154110000000     0.076000000000     0.067020000000     0.0218621  
H15      H      0.177420000000     0.076560000000     0.928220000000     0.0218144  
H16      H      0.179740000000     0.022670000000     0.927830000000     0.0487506  
H17      H      0.979550000000     0.178950000000     0.572110000000     0.0487738  
H18      H      0.925610000000     0.177260000000     0.570970000000     0.0216045  
H19      H      0.926820000000     0.153910000000     0.432220000000     0.0215931  
H20      H      0.980600000000     0.152770000000     0.432810000000     0.048867   
H21      H      0.023840000000     0.154740000000     0.572760000000     0.0487737  
H22      H      0.077750000000     0.156480000000     0.572270000000     0.0215419  
H23      H      0.077410000000     0.177670000000     0.432740000000     0.0214676  
H24      H      0.023590000000     0.178750000000     0.432570000000     0.0487053  
H25      H      0.976420000000     0.180680000000     0.929120000000     0.0487822  
H26      H      0.922540000000     0.179190000000     0.929260000000     0.0218361  
H27      H      0.922430000000     0.155900000000     0.068060000000     0.0218302  
H28      H      0.976340000000     0.154760000000     0.068500000000     0.0488082  
H29      H      0.019980000000     0.180430000000     0.068540000000     0.0487229  
H30      H      0.073890000000     0.179070000000     0.068160000000     0.0218102  
H31      H      0.073760000000     0.156060000000     0.929250000000     0.0218722  
H32      H      0.019880000000     0.154790000000     0.929040000000     0.0488698  
H33      H      0.977010000000     0.819190000000     0.569150000000     0.0487934  
H34      H      0.923100000000     0.820250000000     0.569380000000     0.0218195  
H35      H      0.922430000000     0.844020000000     0.430760000000     0.0218796  
H36      H      0.976310000000     0.845510000000     0.429960000000     0.0488599  
H37      H      0.019950000000     0.819660000000     0.429460000000     0.0487816  
H38      H      0.073850000000     0.821140000000     0.429290000000     0.0218566  
H39      H      0.074290000000     0.844470000000     0.568090000000     0.0218808  
H40      H      0.020390000000     0.845530000000     0.568840000000     0.0488994  
H41      H      0.818560000000     0.977930000000     0.433370000000     0.048809   
H42      H      0.819330000000     0.924100000000     0.433300000000     0.0218074  
H43      H      0.843780000000     0.923410000000     0.571650000000     0.0218394  
H44      H      0.845680000000     0.977370000000     0.572230000000     0.048856   
H45      H      0.821190000000     0.021850000000     0.572570000000     0.0487352  
H46      H      0.823270000000     0.075830000000     0.571330000000     0.0216405  
H47      H      0.844960000000     0.074340000000     0.431960000000     0.0216784  
H48      H      0.845520000000     0.020550000000     0.432560000000     0.0488721  
H49      H      0.980510000000     0.846410000000     0.928950000000     0.0488906  
H50      H      0.926590000000     0.844850000000     0.929080000000     0.0218196  
H51      H      0.926570000000     0.821720000000     0.067960000000     0.0218527  
H52      H      0.980440000000     0.820720000000     0.068410000000     0.0488203  
H53      H      0.023790000000     0.847030000000     0.068390000000     0.0488751  
H54      H      0.077690000000     0.845710000000     0.068420000000     0.0218356  
H55      H      0.078010000000     0.821620000000     0.929910000000     0.0218523  
H56      H      0.024110000000     0.820390000000     0.929330000000     0.0488162  
H57      H      0.820410000000     0.977460000000     0.929080000000     0.0488116  
H58      H      0.822300000000     0.923600000000     0.929370000000     0.0218735  
H59      H      0.845450000000     0.923830000000     0.068230000000     0.0218522  
H60      H      0.846150000000     0.977770000000     0.068520000000     0.0488274  
H61      H      0.819820000000     0.021100000000     0.068320000000     0.0487563  
H62      H      0.820490000000     0.075020000000     0.067830000000     0.0218416  
H63      H      0.844090000000     0.075060000000     0.929140000000     0.0218726  
H64      H      0.846010000000     0.021180000000     0.929060000000     0.0488907  
H65      H      0.212820000000     0.645730000000     0.485020000000     0.0508892  
H66      H      0.213140000000     0.591320000000     0.486940000000     0.0220439  
H67      H      0.119380000000     0.590790000000     0.516110000000     0.022085   
H68      H      0.118780000000     0.645210000000     0.515770000000     0.0510287  
H69      H      0.175530000000     0.686250000000     0.429310000000     0.0509978  
H70      H      0.174750000000     0.740680000000     0.428810000000     0.022064   
H71      H      0.155680000000     0.741400000000     0.569230000000     0.0220699  
H72      H      0.155410000000     0.686990000000     0.570160000000     0.0510292  
H73      H      0.215280000000     0.354170000000     0.521130000000     0.0509119  
H74      H      0.214680000000     0.408600000000     0.519700000000     0.0220885  
H75      H      0.120770000000     0.407650000000     0.491660000000     0.0221106  
H76      H      0.121090000000     0.353230000000     0.491550000000     0.0511281  
H77      H      0.159710000000     0.313280000000     0.434990000000     0.0511266  
H78      H      0.160630000000     0.258930000000     0.433870000000     0.021998   
H79      H      0.177470000000     0.257410000000     0.574920000000     0.0219571  
H80      H      0.177560000000     0.311900000000     0.576500000000     0.0510275  
H81      H      0.215560000000     0.646060000000     0.987980000000     0.0508516  
H82      H      0.214980000000     0.591640000000     0.989440000000     0.022078   
H83      H      0.121210000000     0.592550000000     0.018470000000     0.0221073  
H84      H      0.121500000000     0.646980000000     0.018600000000     0.051052   
H85      H      0.179220000000     0.687010000000     0.932200000000     0.0510417  
H86      H      0.178990000000     0.741440000000     0.931350000000     0.0220398  
H87      H      0.159250000000     0.742760000000     0.071550000000     0.0220624  
H88      H      0.158420000000     0.688350000000     0.072820000000     0.0509876  
H89      H      0.118920000000     0.355290000000     0.985340000000     0.0509929  
H90      H      0.119520000000     0.409710000000     0.987290000000     0.022031   
H91      H      0.213250000000     0.408630000000     0.016630000000     0.0220666  
H92      H      0.212930000000     0.354210000000     0.016270000000     0.0508867  
H93      H      0.155160000000     0.314080000000     0.929840000000     0.0510197  
H94      H      0.155380000000     0.259630000000     0.929320000000     0.0220512  
H95      H      0.175150000000     0.258720000000     0.069520000000     0.0220529  
H96      H      0.175990000000     0.313110000000     0.070460000000     0.050996   
H97      H      0.120760000000     0.514440000000     0.786040000000     0.0487341  
H98      H      0.120980000000     0.513130000000     0.866700000000     0.0218188  
H99      H      0.213640000000     0.489380000000     0.866590000000     0.0218309  
H100     H      0.213790000000     0.488140000000     0.785940000000     0.0487728  
H101     H      0.213740000000     0.514160000000     0.720710000000     0.0487227  
H102     H      0.213470000000     0.512500000000     0.640060000000     0.0218414  
H103     H      0.120760000000     0.488960000000     0.640530000000     0.0218479  
H104     H      0.120650000000     0.488070000000     0.721180000000     0.0488212  
H105     H      0.213680000000     0.512020000000     0.221160000000     0.0486868  
H106     H      0.213550000000     0.511250000000     0.140510000000     0.0218266  
H107     H      0.120710000000     0.488290000000     0.139980000000     0.0217814  
H108     H      0.120440000000     0.486400000000     0.220590000000     0.0486634  
H109     H      0.120370000000     0.511710000000     0.286070000000     0.0487009  
H110     H      0.120520000000     0.510230000000     0.366680000000     0.021776   
H111     H      0.213350000000     0.487190000000     0.366710000000     0.0218111  
H112     H      0.213580000000     0.486000000000     0.286060000000     0.0486678  
H113     H      0.356290000000     0.119400000000     0.514450000000     0.0509893  
H114     H      0.410710000000     0.119670000000     0.512420000000     0.0220808  
H115     H      0.410170000000     0.213390000000     0.482870000000     0.0220603  
H116     H      0.355760000000     0.213400000000     0.483320000000     0.0508633  
H117     H      0.314410000000     0.176370000000     0.429180000000     0.0510238  
H118     H      0.260020000000     0.175880000000     0.430200000000     0.0220463  
H119     H      0.260900000000     0.156820000000     0.570620000000     0.021986   
H120     H      0.315340000000     0.156260000000     0.570030000000     0.0510311  
H121     H      0.647950000000     0.120330000000     0.479260000000     0.0510735  
H122     H      0.593510000000     0.120270000000     0.480410000000     0.0221179  
H123     H      0.593250000000     0.214230000000     0.508160000000     0.0220793  
H124     H      0.647660000000     0.214580000000     0.508540000000     0.0508815  
H125     H      0.688180000000     0.176420000000     0.565280000000     0.0510214  
H126     H      0.742550000000     0.175790000000     0.566410000000     0.0219475  
H127     H      0.744150000000     0.158990000000     0.425350000000     0.0219591  
H128     H      0.689680000000     0.158600000000     0.423760000000     0.0510052  
H129     H      0.352500000000     0.214510000000     0.981740000000     0.0508159  
H130     H      0.406920000000     0.214040000000     0.981830000000     0.0220468  
H131     H      0.406530000000     0.120210000000     0.010560000000     0.0221297  
H132     H      0.352120000000     0.120400000000     0.012070000000     0.0510726  
H133     H      0.310900000000     0.178290000000     0.927150000000     0.0509666  
H134     H      0.256490000000     0.177920000000     0.927820000000     0.0220869  
H135     H      0.256950000000     0.157760000000     0.067910000000     0.0220498  
H136     H      0.311390000000     0.157070000000     0.067640000000     0.0509464  
H137     H      0.644270000000     0.212820000000     0.012160000000     0.0509284  
H138     H      0.589860000000     0.212990000000     0.011010000000     0.0220708  
H139     H      0.589410000000     0.119300000000     0.981290000000     0.0220445  
H140     H      0.643830000000     0.118850000000     0.980850000000     0.051014   
H141     H      0.685470000000     0.155210000000     0.926580000000     0.0509936  
H142     H      0.739890000000     0.155700000000     0.927270000000     0.0220297  
H143     H      0.739340000000     0.175420000000     0.067500000000     0.0221126  
H144     H      0.684930000000     0.175990000000     0.067220000000     0.0510546  
H145     H      0.513130000000     0.213600000000     0.779010000000     0.0487011  
H146     H      0.510650000000     0.213310000000     0.859580000000     0.0218383  
H147     H      0.487140000000     0.120590000000     0.858580000000     0.0217874  
H148     H      0.487050000000     0.120500000000     0.777890000000     0.0487645  
H149     H      0.514120000000     0.120540000000     0.713710000000     0.0487263  
H150     H      0.513810000000     0.120740000000     0.633020000000     0.0218083  
H151     H      0.490460000000     0.213500000000     0.632420000000     0.0218469  
H152     H      0.488200000000     0.213690000000     0.713010000000     0.0487176  
H153     H      0.511940000000     0.119760000000     0.213070000000     0.0487391  
H154     H      0.509930000000     0.119970000000     0.132460000000     0.0218131  
H155     H      0.486800000000     0.212780000000     0.132950000000     0.0218417  
H156     H      0.486170000000     0.212960000000     0.213600000000     0.0486878  
H157     H      0.512780000000     0.213020000000     0.278010000000     0.0487285  
H158     H      0.512370000000     0.212940000000     0.358660000000     0.0218347  
H159     H      0.489180000000     0.120140000000     0.359550000000     0.021794   
H160     H      0.486960000000     0.119830000000     0.278950000000     0.0487409  
H161     H      0.828920000000     0.313330000000     0.565480000000     0.0511838  
H162     H      0.828890000000     0.258960000000     0.566680000000     0.0220554  
H163     H      0.843320000000     0.257070000000     0.425040000000     0.0220199  
H164     H      0.844230000000     0.311560000000     0.423330000000     0.0511163  
H165     H      0.883750000000     0.354270000000     0.482960000000     0.0511231  
H166     H      0.882650000000     0.408780000000     0.483790000000     0.0219922  
H167     H      0.787820000000     0.407030000000     0.503720000000     0.0220308  
H168     H      0.788580000000     0.352680000000     0.504200000000     0.0511257  
H169     H      0.820660000000     0.685850000000     0.568770000000     0.0510856  
H170     H      0.821620000000     0.740290000000     0.569630000000     0.0220858  
H171     H      0.839250000000     0.741380000000     0.428780000000     0.0220969  
H172     H      0.839280000000     0.686970000000     0.427480000000     0.0510708  
H173     H      0.782860000000     0.644470000000     0.509380000000     0.0509265  
H174     H      0.783910000000     0.589980000000     0.507730000000     0.0219438  
H175     H      0.878480000000     0.591800000000     0.485300000000     0.0220136  
H176     H      0.877750000000     0.646160000000     0.485480000000     0.051236   
H177     H      0.838790000000     0.312690000000     0.067760000000     0.0510625  
H178     H      0.838710000000     0.258260000000     0.067950000000     0.0220887  
H179     H      0.820370000000     0.257650000000     0.927310000000     0.0220737  
H180     H      0.819420000000     0.312080000000     0.926690000000     0.0510316  
H181     H      0.782340000000     0.354390000000     0.983270000000     0.0508089  
H182     H      0.783660000000     0.408880000000     0.983210000000     0.0219442  
H183     H      0.877910000000     0.406950000000     0.008420000000     0.0220493  
H184     H      0.876900000000     0.352610000000     0.010020000000     0.0511707  
H185     H      0.789300000000     0.646150000000     0.008760000000     0.0510173  
H186     H      0.788330000000     0.591810000000     0.007100000000     0.0220546  
H187     H      0.882900000000     0.589900000000     0.984670000000     0.0219562  
H188     H      0.884200000000     0.644400000000     0.984860000000     0.0510656  
H189     H      0.827620000000     0.686000000000     0.068010000000     0.0510769  
H190     H      0.827620000000     0.740440000000     0.068280000000     0.0220969  
H191     H      0.845860000000     0.741150000000     0.927600000000     0.0221079  
H192     H      0.846860000000     0.686720000000     0.926900000000     0.0510861  
H193     H      0.787760000000     0.512540000000     0.777370000000     0.048699   
H194     H      0.787660000000     0.511430000000     0.857950000000     0.0216911  
H195     H      0.880220000000     0.487350000000     0.858850000000     0.0217314  
H196     H      0.880680000000     0.485780000000     0.778180000000     0.0487475  
H197     H      0.881050000000     0.510940000000     0.712390000000     0.0487292  
H198     H      0.880670000000     0.509520000000     0.631680000000     0.0216228  
H199     H      0.787590000000     0.487520000000     0.632280000000     0.0215971  
H200     H      0.787560000000     0.486290000000     0.712830000000     0.0486904  
H201     H      0.878710000000     0.513190000000     0.277600000000     0.048698   
H202     H      0.878700000000     0.511890000000     0.358120000000     0.0215425  
H203     H      0.785920000000     0.488700000000     0.358740000000     0.0216319  
H204     H      0.785550000000     0.487200000000     0.278060000000     0.0487272  
H205     H      0.879000000000     0.487420000000     0.212960000000     0.0487172  
H206     H      0.879060000000     0.488570000000     0.132410000000     0.0214327  
H207     H      0.785910000000     0.510200000000     0.131520000000     0.0215306  
H208     H      0.785430000000     0.511850000000     0.212160000000     0.0486845  
H209     H      0.352580000000     0.879000000000     0.482800000000     0.0510868  
H210     H      0.407000000000     0.878940000000     0.484260000000     0.0221071  
H211     H      0.406970000000     0.785070000000     0.512700000000     0.0220669  
H212     H      0.352550000000     0.784850000000     0.512810000000     0.0508774  
H213     H      0.311410000000     0.821980000000     0.568130000000     0.0510118  
H214     H      0.257010000000     0.822610000000     0.567960000000     0.0220933  
H215     H      0.256970000000     0.841430000000     0.427460000000     0.0220457  
H216     H      0.311420000000     0.841860000000     0.427200000000     0.0509864  
H217     H      0.644470000000     0.785350000000     0.486500000000     0.0508915  
H218     H      0.590050000000     0.785400000000     0.486680000000     0.022084   
H219     H      0.589740000000     0.879150000000     0.515960000000     0.0220381  
H220     H      0.644160000000     0.879390000000     0.517350000000     0.0510669  
H221     H      0.685320000000     0.822930000000     0.431330000000     0.0510769  
H222     H      0.739700000000     0.823530000000     0.431300000000     0.0220867  
H223     H      0.740010000000     0.841600000000     0.572030000000     0.0220467  
H224     H      0.685560000000     0.842050000000     0.572500000000     0.0509949  
H225     H      0.315320000000     0.842840000000     0.929720000000     0.051034   
H226     H      0.260890000000     0.842530000000     0.929730000000     0.0220821  
H227     H      0.260590000000     0.824390000000     0.070440000000     0.0220669  
H228     H      0.315010000000     0.823660000000     0.070860000000     0.0510372  
H229     H      0.356550000000     0.880060000000     0.984950000000     0.0510386  
H230     H      0.410970000000     0.879640000000     0.985730000000     0.0220886  
H231     H      0.410480000000     0.785900000000     0.015090000000     0.0220756  
H232     H      0.356050000000     0.786040000000     0.015890000000     0.0508956  
H233     H      0.689310000000     0.841230000000     0.069200000000     0.0510038  
H234     H      0.743720000000     0.840730000000     0.068890000000     0.0220859  
H235     H      0.743640000000     0.821850000000     0.928420000000     0.0220366  
H236     H      0.689200000000     0.821280000000     0.928300000000     0.0509814  
H237     H      0.647810000000     0.784380000000     0.983800000000     0.0508382  
H238     H      0.593380000000     0.784810000000     0.984900000000     0.0220442  
H239     H      0.593960000000     0.878680000000     0.013380000000     0.0221128  
H240     H      0.648370000000     0.878530000000     0.013850000000     0.0510608  
H241     H      0.486190000000     0.878450000000     0.717680000000     0.0487399  
H242     H      0.486610000000     0.878270000000     0.637000000000     0.0217664  
H243     H      0.509830000000     0.785480000000     0.636410000000     0.0218385  
H244     H      0.511990000000     0.785260000000     0.716990000000     0.0487034  
H245     H      0.487000000000     0.785370000000     0.782950000000     0.0487343  
H246     H      0.489440000000     0.785630000000     0.863520000000     0.0218197  
H247     H      0.513050000000     0.878320000000     0.862590000000     0.0217767  
H248     H      0.513190000000     0.878440000000     0.781920000000     0.0487524  
H249     H      0.513590000000     0.879070000000     0.282930000000     0.0487322  
H250     H      0.511260000000     0.878800000000     0.363520000000     0.0217787  
H251     H      0.487890000000     0.786040000000     0.362640000000     0.021817   
H252     H      0.487610000000     0.785930000000     0.281990000000     0.0487084  
H253     H      0.514280000000     0.785930000000     0.217610000000     0.0487266  
H254     H      0.513720000000     0.786090000000     0.136950000000     0.021804   
H255     H      0.490730000000     0.878950000000     0.136410000000     0.0218056  
H256     H      0.488680000000     0.879170000000     0.217010000000     0.0487585  
N1       N      0.166430000000     0.919930000000     0.497420000000    -0.207513   
N2       N      0.168120000000     0.079280000000     0.498880000000    -0.207567   
N3       N      0.168960000000     0.920980000000     0.998200000000    -0.207614   
N4       N      0.165760000000     0.080290000000     0.997650000000    -0.207551   
N5       N      0.922220000000     0.165700000000     0.501490000000    -0.207699   
N6       N      0.081570000000     0.167000000000     0.502460000000    -0.20768    
N7       N      0.918480000000     0.167490000000     0.998630000000    -0.20744    
N8       N      0.077830000000     0.167580000000     0.998690000000    -0.207445   
N9       N      0.918740000000     0.832130000000     0.500110000000    -0.207405   
N10      N      0.078090000000     0.832800000000     0.498660000000    -0.207386   
N11      N      0.831630000000     0.919750000000     0.502400000000    -0.207447   
N12      N      0.834040000000     0.079090000000     0.501550000000    -0.207498   
N13      N      0.922570000000     0.833260000000     0.998510000000    -0.207609   
N14      N      0.081860000000     0.833640000000     0.999200000000    -0.207571   
N15      N      0.833950000000     0.919700000000     0.998790000000    -0.207418   
N16      N      0.832230000000     0.079050000000     0.998460000000    -0.207471   
N17      N      0.166300000000     0.587020000000     0.501620000000    -0.20741    
N18      N      0.165220000000     0.745080000000     0.498980000000    -0.207447   
N19      N      0.167700000000     0.412160000000     0.505540000000    -0.207254   
N20      N      0.169070000000     0.254130000000     0.504320000000    -0.207501   
N21      N      0.168050000000     0.588060000000     0.003950000000    -0.207338   
N22      N      0.169130000000     0.746130000000     0.001360000000    -0.207455   
N23      N      0.166420000000     0.413200000000     0.002060000000    -0.207386   
N24      N      0.165260000000     0.255140000000     0.999360000000    -0.207511   
N25      N      0.167300000000     0.501220000000     0.872650000000    -0.207585   
N26      N      0.167110000000     0.500680000000     0.634290000000    -0.207507   
N27      N      0.167130000000     0.499820000000     0.134250000000    -0.207444   
N28      N      0.166940000000     0.498740000000     0.372700000000    -0.20743    
N29      N      0.414470000000     0.166540000000     0.497540000000    -0.207357   
N30      N      0.256420000000     0.166360000000     0.500480000000    -0.207506   
N31      N      0.589340000000     0.167220000000     0.494390000000    -0.20724    
N32      N      0.747390000000     0.167340000000     0.495980000000    -0.207368   
N33      N      0.410760000000     0.167110000000     0.996150000000    -0.207408   
N34      N      0.252690000000     0.167830000000     0.997900000000    -0.207446   
N35      N      0.585610000000     0.166170000000     0.996140000000    -0.207495   
N36      N      0.743650000000     0.165590000000     0.997410000000    -0.207578   
N37      N      0.498830000000     0.166940000000     0.865090000000    -0.207525   
N38      N      0.502150000000     0.167110000000     0.626710000000    -0.207458   
N39      N      0.498360000000     0.166390000000     0.126710000000    -0.20743    
N40      N      0.500830000000     0.166550000000     0.365100000000    -0.207476   
N41      N      0.836020000000     0.253960000000     0.495940000000    -0.207426   
N42      N      0.835180000000     0.411960000000     0.493830000000    -0.20743    
N43      N      0.830510000000     0.744880000000     0.499300000000    -0.207412   
N44      N      0.831260000000     0.586850000000     0.496480000000    -0.20745    
N45      N      0.829650000000     0.253920000000     0.997640000000    -0.207362   
N46      N      0.830860000000     0.411950000000     0.995740000000    -0.207457   
N47      N      0.835540000000     0.586810000000     0.995810000000    -0.207553   
N48      N      0.836630000000     0.744840000000     0.997960000000    -0.207406   
N49      N      0.833900000000     0.499350000000     0.864390000000    -0.207616   
N50      N      0.834100000000     0.498610000000     0.625990000000    -0.207683   
N51      N      0.832340000000     0.500200000000     0.364400000000    -0.207707   
N52      N      0.832520000000     0.499420000000     0.125990000000    -0.207779   
N53      N      0.411020000000     0.832010000000     0.498560000000    -0.207346   
N54      N      0.252960000000     0.832040000000     0.497710000000    -0.207385   
N55      N      0.585870000000     0.832280000000     0.501240000000    -0.207442   
N56      N      0.743890000000     0.832560000000     0.501650000000    -0.207441   
N57      N      0.256710000000     0.833470000000     0.000070000000    -0.207278   
N58      N      0.414760000000     0.832740000000     0.000390000000    -0.207338   
N59      N      0.747720000000     0.831320000000     0.998630000000    -0.207383   
N60      N      0.589630000000     0.831760000000     0.999180000000    -0.207312   
N61      N      0.498210000000     0.831890000000     0.630700000000    -0.207535   
N62      N      0.501310000000     0.831990000000     0.869060000000    -0.207473   
N63      N      0.499510000000     0.832410000000     0.369080000000    -0.207486   
N64      N      0.502230000000     0.832510000000     0.130680000000    -0.207512   
O1       O      0.501100000000     0.857290000000     0.063240000000    -0.557063   
O2       O      0.503490000000     0.857000000000     0.936250000000    -0.557288   
O3       O      0.459890000000     0.857380000000     0.998000000000    -0.557209   
O4       O      0.544760000000     0.856910000000     0.001480000000    -0.557131   
O5       O      0.544480000000     0.807100000000     0.997590000000    -0.557027   
O6       O      0.459630000000     0.807590000000     0.002380000000    -0.557074   
O7       O      0.500390000000     0.807220000000     0.936520000000    -0.557262   
O8       O      0.503660000000     0.807480000000     0.063460000000    -0.55721    
O9       O      0.496630000000     0.856910000000     0.563480000000    -0.557115   
O10      O      0.500240000000     0.857190000000     0.436540000000    -0.557022   
O11      O      0.456000000000     0.856990000000     0.497330000000    -0.557221   
O12      O      0.540820000000     0.857110000000     0.502680000000    -0.55738    
O13      O      0.540920000000     0.807320000000     0.498310000000    -0.557362   
O14      O      0.456050000000     0.807180000000     0.501220000000    -0.557183   
O15      O      0.497480000000     0.807390000000     0.436270000000    -0.557315   
O16      O      0.499530000000     0.807120000000     0.563260000000    -0.557455   
O17      O      0.858460000000     0.497910000000     0.931990000000    -0.557607   
O18      O      0.857780000000     0.498920000000     0.058980000000    -0.557997   
O19      O      0.856920000000     0.456240000000     0.996480000000    -0.55857    
O20      O      0.859320000000     0.541110000000     0.994590000000    -0.556386   
O21      O      0.809480000000     0.542520000000     0.995910000000    -0.558838   
O22      O      0.807100000000     0.457660000000     0.993990000000    -0.556502   
O23      O      0.807910000000     0.499860000000     0.058420000000    -0.557517   
O24      O      0.808670000000     0.500850000000     0.931420000000    -0.557773   
O25      O      0.857680000000     0.500710000000     0.431280000000    -0.558413   
O26      O      0.858620000000     0.499850000000     0.558280000000    -0.557015   
O27      O      0.859160000000     0.457570000000     0.493850000000    -0.556369   
O28      O      0.857140000000     0.542460000000     0.495160000000    -0.558631   
O29      O      0.807290000000     0.541240000000     0.496540000000    -0.556422   
O30      O      0.809320000000     0.456360000000     0.495140000000    -0.558908   
O31      O      0.808780000000     0.498100000000     0.559090000000    -0.558587   
O32      O      0.807830000000     0.498970000000     0.432090000000    -0.557032   
O33      O      0.496730000000     0.141900000000     0.932270000000    -0.556871   
O34      O      0.499450000000     0.141590000000     0.059270000000    -0.556674   
O35      O      0.455630000000     0.141960000000     0.997800000000    -0.557139   
O36      O      0.540480000000     0.141520000000     0.993780000000    -0.557357   
O37      O      0.540740000000     0.191310000000     0.998190000000    -0.557227   
O38      O      0.455890000000     0.191770000000     0.993890000000    -0.557136   
O39      O      0.496850000000     0.191410000000     0.059500000000    -0.557174   
O40      O      0.499830000000     0.191680000000     0.932560000000    -0.557311   
O41      O      0.503810000000     0.142090000000     0.559500000000    -0.55689    
O42      O      0.500130000000     0.141790000000     0.432570000000    -0.556966   
O43      O      0.544420000000     0.142110000000     0.493290000000    -0.55665    
O44      O      0.459580000000     0.141780000000     0.498770000000    -0.556846   
O45      O      0.459370000000     0.191570000000     0.494390000000    -0.557446   
O46      O      0.544240000000     0.191920000000     0.497140000000    -0.557234   
O47      O      0.502760000000     0.191600000000     0.432270000000    -0.557297   
O48      O      0.500800000000     0.191880000000     0.559270000000    -0.557251   
O49      O      0.142270000000     0.499090000000     0.066870000000    -0.557121   
O50      O      0.142390000000     0.502620000000     0.939950000000    -0.557522   
O51      O      0.141930000000     0.458450000000     0.000790000000    -0.557204   
O52      O      0.142730000000     0.543280000000     0.005960000000    -0.557072   
O53      O      0.192530000000     0.542830000000     0.001880000000    -0.557392   
O54      O      0.191720000000     0.457960000000     0.005020000000    -0.557329   
O55      O      0.192150000000     0.499310000000     0.939980000000    -0.557359   
O56      O      0.192090000000     0.501470000000     0.066980000000    -0.557209   
O57      O      0.142070000000     0.500250000000     0.440040000000    -0.557214   
O58      O      0.142180000000     0.498580000000     0.567040000000    -0.557369   
O59      O      0.141780000000     0.541840000000     0.504720000000    -0.557345   
O60      O      0.142470000000     0.456960000000     0.502410000000    -0.557468   
O61      O      0.192270000000     0.457380000000     0.506420000000    -0.556983   
O62      O      0.191570000000     0.542200000000     0.500510000000    -0.55721    
O63      O      0.191960000000     0.501780000000     0.566910000000    -0.556986   
O64      O      0.191890000000     0.497810000000     0.440000000000    -0.556937   
O65      O      0.877600000000     0.831380000000     0.035690000000    -0.557781   
O66      O      0.792750000000     0.832960000000     0.035790000000    -0.557325   
O67      O      0.834460000000     0.789730000000     0.035480000000    -0.556981   
O68      O      0.835980000000     0.874650000000     0.035920000000    -0.556874   
O69      O      0.833150000000     0.874760000000     0.961410000000    -0.557303   
O70      O      0.837100000000     0.789960000000     0.960970000000    -0.557325   
O71      O      0.792710000000     0.830430000000     0.961260000000    -0.55652    
O72      O      0.877560000000     0.834330000000     0.961200000000    -0.556646   
O73      O      0.873900000000     0.830440000000     0.537790000000    -0.556634   
O74      O      0.789030000000     0.833570000000     0.538630000000    -0.556332   
O75      O      0.829880000000     0.789590000000     0.537450000000    -0.556583   
O76      O      0.833070000000     0.874480000000     0.538990000000    -0.556132   
O77      O      0.829940000000     0.875030000000     0.464510000000    -0.558013   
O78      O      0.832260000000     0.790190000000     0.462930000000    -0.557861   
O79      O      0.788750000000     0.831450000000     0.464070000000    -0.558276   
O80      O      0.873580000000     0.833830000000     0.463340000000    -0.55765    
O81      O      0.830100000000     0.124100000000     0.035500000000    -0.557122   
O82      O      0.831700000000     0.209000000000     0.035110000000    -0.557096   
O83      O      0.788500000000     0.167360000000     0.034990000000    -0.557343   
O84      O      0.873390000000     0.165700000000     0.035620000000    -0.556838   
O85      O      0.873580000000     0.168400000000     0.961100000000    -0.55733    
O86      O      0.788780000000     0.164470000000     0.960500000000    -0.557259   
O87      O      0.829200000000     0.208820000000     0.960590000000    -0.557285   
O88      O      0.833180000000     0.124000000000     0.961020000000    -0.557073   
O89      O      0.833560000000     0.124650000000     0.537550000000    -0.555991   
O90      O      0.834620000000     0.209550000000     0.534630000000    -0.558136   
O91      O      0.791830000000     0.167760000000     0.534660000000    -0.557824   
O92      O      0.876720000000     0.166900000000     0.537510000000    -0.556404   
O93      O      0.877800000000     0.165240000000     0.462930000000    -0.559172   
O94      O      0.792960000000     0.166180000000     0.460090000000    -0.556879   
O95      O      0.836060000000     0.208370000000     0.460060000000    -0.55695    
O96      O      0.835170000000     0.123510000000     0.462970000000    -0.558974   
O97      O      0.164000000000     0.125140000000     0.035230000000    -0.557603   
O98      O      0.166640000000     0.209960000000     0.036060000000    -0.557855   
O99      O      0.122890000000     0.168900000000     0.035820000000    -0.556938   
O100     O      0.207770000000     0.166250000000     0.035410000000    -0.556943   
O101     O      0.207600000000     0.169350000000     0.960940000000    -0.557535   
O102     O      0.122770000000     0.166340000000     0.961290000000    -0.557152   
O103     O      0.163720000000     0.210310000000     0.961570000000    -0.556839   
O104     O      0.166740000000     0.125430000000     0.960710000000    -0.556737   
O105     O      0.169280000000     0.124800000000     0.462860000000    -0.556445   
O106     O      0.168350000000     0.209690000000     0.465700000000    -0.558845   
O107     O      0.211230000000     0.167780000000     0.463810000000    -0.55824    
O108     O      0.126380000000     0.167180000000     0.464740000000    -0.557993   
O109     O      0.126700000000     0.166600000000     0.539380000000    -0.557141   
O110     O      0.211610000000     0.165200000000     0.538330000000    -0.557008   
O111     O      0.170000000000     0.208570000000     0.540260000000    -0.556525   
O112     O      0.168200000000     0.123720000000     0.537460000000    -0.558632   
O113     O      0.126930000000     0.831850000000     0.962230000000    -0.557234   
O114     O      0.211770000000     0.834620000000     0.962600000000    -0.557216   
O115     O      0.170710000000     0.790810000000     0.963240000000    -0.55691    
O116     O      0.167920000000     0.875700000000     0.961640000000    -0.556747   
O117     O      0.170610000000     0.876280000000     0.036150000000    -0.557865   
O118     O      0.167800000000     0.791460000000     0.037720000000    -0.557804   
O119     O      0.211630000000     0.832480000000     0.037150000000    -0.557388   
O120     O      0.126770000000     0.835300000000     0.036680000000    -0.557122   
O121     O      0.122980000000     0.831180000000     0.461110000000    -0.556494   
O122     O      0.207880000000     0.833500000000     0.460610000000    -0.556352   
O123     O      0.166570000000     0.789920000000     0.461240000000    -0.556777   
O124     O      0.164260000000     0.874830000000     0.460460000000    -0.556274   
O125     O      0.167340000000     0.875050000000     0.534950000000    -0.557957   
O126     O      0.164000000000     0.790250000000     0.535760000000    -0.557858   
O127     O      0.208030000000     0.831020000000     0.535140000000    -0.557798   
O128     O      0.123210000000     0.834320000000     0.535590000000    -0.557422   
V1       V      0.502340000000     0.859140000000     0.999730000000     1.39414    
V2       V      0.502040000000     0.805350000000     0.000000000000     1.39472    
V3       V      0.498410000000     0.859050000000     0.500020000000     1.39413    
V4       V      0.498490000000     0.805260000000     0.499760000000     1.39534    
V5       V      0.860100000000     0.498540000000     0.995520000000     1.39562    
V6       V      0.806310000000     0.500230000000     0.994890000000     1.39604    
V7       V      0.860130000000     0.500150000000     0.494660000000     1.39539    
V8       V      0.806330000000     0.498670000000     0.495710000000     1.39621    
V9       V      0.498050000000     0.139750000000     0.995760000000     1.39361    
V10      V      0.498330000000     0.193530000000     0.996040000000     1.395      
V11      V      0.502000000000     0.139950000000     0.496040000000     1.39312    
V12      V      0.501790000000     0.193730000000     0.495760000000     1.39526    
V13      V      0.140340000000     0.500880000000     0.003400000000     1.3948     
V14      V      0.194120000000     0.500380000000     0.003480000000     1.39504    
V15      V      0.140140000000     0.499380000000     0.503550000000     1.39527    
V16      V      0.193920000000     0.499810000000     0.503460000000     1.39399    
V17      V      0.835190000000     0.832180000000     0.038700000000     1.3951     
V18      V      0.835130000000     0.832370000000     0.958230000000     1.39352    
V19      V      0.831490000000     0.832000000000     0.541210000000     1.39122    
V20      V      0.831130000000     0.832640000000     0.460740000000     1.39769    
V21      V      0.830920000000     0.166550000000     0.038290000000     1.39415    
V22      V      0.831200000000     0.166410000000     0.957820000000     1.39463    
V23      V      0.834170000000     0.167220000000     0.539050000000     1.39353    
V24      V      0.835500000000     0.165820000000     0.458570000000     1.39758    
V25      V      0.165330000000     0.167540000000     0.038610000000     1.39552    
V26      V      0.165190000000     0.167880000000     0.958140000000     1.39384    
V27      V      0.168800000000     0.167370000000     0.461320000000     1.39675    
V28      V      0.169160000000     0.166020000000     0.541820000000     1.39464    
V29      V      0.169350000000     0.833230000000     0.959440000000     1.39357    
V30      V      0.169200000000     0.833900000000     0.039910000000     1.39591    
V31      V      0.165410000000     0.832350000000     0.457860000000     1.39156    
V32      V      0.165640000000     0.832670000000     0.538330000000     1.39717    


