data_structure

_audit_creation_method RASPA-1.0
_audit_creation_date 2023-5-23
_audit_author_name 'Poobodin Mano'

_cell_length_a    29.8911
_cell_length_b    29.8911
_cell_length_c    44.7451
_cell_angle_alpha 90.0001
_cell_angle_beta  90
_cell_angle_gamma 120
_cell_volume      34622.6

_symmetry_cell_setting          triclinic
_symmetry_space_group_name_Hall 'P 1'
_symmetry_space_group_name_H-M  'P 1'
_symmetry_Int_Tables_number     1

_symmetry_equiv_pos_as_xyz 'x,y,z'

loop_
_atom_site_label
_atom_site_type_symbol
_atom_site_fract_x
_atom_site_fract_y
_atom_site_fract_z
_atom_site_charge
C1       C      0.998590000000     0.999300000000     0.276550000000     0.477345   
C2       C      0.998680000000     0.999220000000     0.390030000000     0.477379   
C3       C      0.913730000000     0.914360000000     0.333290000000     0.479064   
C4       C      0.083550000000     0.084170000000     0.333290000000     0.479131   
C5       C      0.998520000000     0.499180000000     0.276540000000     0.478518   
C6       C      0.998580000000     0.499090000000     0.390020000000     0.478301   
C7       C      0.913650000000     0.414240000000     0.333270000000     0.479258   
C8       C      0.083470000000     0.584040000000     0.333280000000     0.479162   
C9       C      0.498500000000     0.999170000000     0.276400000000     0.478378   
C10      C      0.498600000000     0.999100000000     0.389880000000     0.478237   
C11      C      0.583460000000     0.084050000000     0.333140000000     0.479176   
C12      C      0.413660000000     0.914230000000     0.333150000000     0.479125   
C13      C      0.498590000000     0.499300000000     0.276430000000     0.479034   
C14      C      0.498680000000     0.499220000000     0.389900000000     0.478956   
C15      C      0.583540000000     0.584180000000     0.333170000000     0.478937   
C16      C      0.413740000000     0.414350000000     0.333170000000     0.479022   
C17      C      0.913090000000     0.998910000000     0.999960000000     0.463934   
C18      C      0.082890000000     0.998880000000     0.999950000000     0.463817   
C19      C      0.997940000000     0.998810000000     0.943220000000     0.475731   
C20      C      0.998050000000     0.998990000000     0.056700000000     0.475292   
C21      C      0.082910000000     0.498900000000     0.999940000000     0.464431   
C22      C      0.913110000000     0.498920000000     0.999950000000     0.464532   
C23      C      0.998060000000     0.498980000000     0.056690000000     0.47588    
C24      C      0.997980000000     0.498840000000     0.943210000000     0.476306   
C25      C      0.582900000000     0.998900000000     0.999810000000     0.463836   
C26      C      0.413070000000     0.998870000000     0.999810000000     0.463958   
C27      C      0.497960000000     0.998820000000     0.943070000000     0.476354   
C28      C      0.498020000000     0.998960000000     0.056550000000     0.475972   
C29      C      0.413100000000     0.498910000000     0.999830000000     0.464526   
C30      C      0.582920000000     0.498930000000     0.999830000000     0.464615   
C31      C      0.498060000000     0.499010000000     0.056570000000     0.476501   
C32      C      0.497980000000     0.498830000000     0.943090000000     0.476772   
C33      C      0.998200000000     0.998550000000     0.723360000000     0.477716   
C34      C      0.998380000000     0.998660000000     0.609890000000     0.477736   
C35      C      0.998290000000     0.913690000000     0.666620000000     0.478396   
C36      C      0.998290000000     0.083510000000     0.666630000000     0.478396   
C37      C      0.998210000000     0.498580000000     0.723360000000     0.478279   
C38      C      0.998360000000     0.498630000000     0.609880000000     0.47829    
C39      C      0.998280000000     0.583500000000     0.666610000000     0.478373   
C40      C      0.998280000000     0.413690000000     0.666620000000     0.478494   
C41      C      0.498230000000     0.998590000000     0.723210000000     0.478322   
C42      C      0.498390000000     0.998650000000     0.609740000000     0.478353   
C43      C      0.498310000000     0.083520000000     0.666470000000     0.478976   
C44      C      0.498310000000     0.913710000000     0.666480000000     0.47916    
C45      C      0.498230000000     0.498570000000     0.723230000000     0.478963   
C46      C      0.498400000000     0.498680000000     0.609760000000     0.478991   
C47      C      0.498320000000     0.413710000000     0.666490000000     0.479169   
C48      C      0.498320000000     0.583520000000     0.666500000000     0.479052   
C49      C      0.543290000000     0.820390000000     0.673230000000    -0.0894238  
C50      C      0.498310000000     0.773650000000     0.666490000000     0.0342451  
C51      C      0.453340000000     0.775410000000     0.659750000000    -0.0894183  
C52      C      0.453840000000     0.822380000000     0.660300000000     0.0740061  
C53      C      0.542790000000     0.866850000000     0.672670000000     0.0739382  
C54      C      0.498320000000     0.723580000000     0.666500000000     0.0342403  
C55      C      0.543310000000     0.721820000000     0.659800000000    -0.0894079  
C56      C      0.542810000000     0.674860000000     0.660360000000     0.0740109  
C57      C      0.453820000000     0.630370000000     0.672640000000     0.0739657  
C58      C      0.453320000000     0.676830000000     0.673190000000    -0.0894255  
C59      C      0.543290000000     0.320390000000     0.673220000000    -0.08942    
C60      C      0.498310000000     0.273650000000     0.666470000000     0.0342666  
C61      C      0.453330000000     0.275420000000     0.659730000000    -0.0894715  
C62      C      0.453840000000     0.322380000000     0.660300000000     0.0741128  
C63      C      0.542790000000     0.366850000000     0.672670000000     0.0739794  
C64      C      0.498310000000     0.223580000000     0.666470000000     0.0342389  
C65      C      0.543300000000     0.221820000000     0.659770000000    -0.0893546  
C66      C      0.542800000000     0.174850000000     0.660320000000     0.0739846  
C67      C      0.453810000000     0.130360000000     0.672610000000     0.0740893  
C68      C      0.453310000000     0.176820000000     0.673170000000    -0.0894081  
C69      C      0.043280000000     0.721810000000     0.659910000000    -0.0888252  
C70      C      0.998280000000     0.723560000000     0.666610000000     0.0337174  
C71      C      0.953280000000     0.676810000000     0.673300000000    -0.0893218  
C72      C      0.953790000000     0.630350000000     0.672750000000     0.0738495  
C73      C      0.042780000000     0.674840000000     0.660460000000     0.0742651  
C74      C      0.998290000000     0.773640000000     0.666610000000     0.033746   
C75      C      0.043260000000     0.820380000000     0.673350000000    -0.0888802  
C76      C      0.042760000000     0.866840000000     0.672800000000     0.0743546  
C77      C      0.953810000000     0.822370000000     0.660430000000     0.0738414  
C78      C      0.953310000000     0.775400000000     0.659870000000    -0.0893326  
C79      C      0.953290000000     0.176810000000     0.673330000000    -0.0893278  
C80      C      0.998290000000     0.223570000000     0.666640000000     0.033759   
C81      C      0.043280000000     0.221810000000     0.659940000000    -0.0888261  
C82      C      0.042780000000     0.174850000000     0.660490000000     0.074349   
C83      C      0.953800000000     0.130350000000     0.672780000000     0.0739293  
C84      C      0.998290000000     0.273630000000     0.666640000000     0.0337235  
C85      C      0.953310000000     0.275400000000     0.659900000000    -0.0893065  
C86      C      0.953810000000     0.322360000000     0.660450000000     0.0738943  
C87      C      0.042760000000     0.366840000000     0.672820000000     0.0743157  
C88      C      0.043260000000     0.320380000000     0.673380000000    -0.088827   
C89      C      0.525970000000     0.544860000000     0.865660000000    -0.0903982  
C90      C      0.498040000000     0.498680000000     0.849730000000     0.03455    
C91      C      0.470070000000     0.452550000000     0.865710000000    -0.0903728  
C92      C      0.470730000000     0.453250000000     0.896920000000     0.0737168  
C93      C      0.525250000000     0.544260000000     0.896870000000     0.0736838  
C94      C      0.498090000000     0.498630000000     0.816590000000     0.0346071  
C95      C      0.451960000000     0.470660000000     0.800620000000    -0.0903015  
C96      C      0.452660000000     0.471320000000     0.769410000000     0.0740007  
C97      C      0.543670000000     0.525840000000     0.769450000000     0.0739963  
C98      C      0.544260000000     0.526560000000     0.800660000000    -0.0902717  
C99      C      0.525970000000     0.044870000000     0.865650000000    -0.0898216  
C100     C      0.498040000000     0.998690000000     0.849710000000     0.0340368  
C101     C      0.470070000000     0.952560000000     0.865680000000    -0.0902704  
C102     C      0.470720000000     0.953250000000     0.896890000000     0.073522   
C103     C      0.525240000000     0.044260000000     0.896860000000     0.0740402  
C104     C      0.498090000000     0.998650000000     0.816570000000     0.034118   
C105     C      0.451960000000     0.970680000000     0.800600000000    -0.0902448  
C106     C      0.452660000000     0.971340000000     0.769390000000     0.0738804  
C107     C      0.543660000000     0.025870000000     0.769430000000     0.0743126  
C108     C      0.544260000000     0.026590000000     0.800640000000    -0.0897199  
C109     C      0.774810000000     0.453950000000     0.006650000000    -0.0780826  
C110     C      0.773050000000     0.498930000000     0.999900000000     0.0247796  
C111     C      0.819800000000     0.543910000000     0.993170000000    -0.0884305  
C112     C      0.866260000000     0.543400000000     0.993750000000     0.0707605  
C113     C      0.821770000000     0.454450000000     0.006120000000     0.0799022  
C114     C      0.722990000000     0.498930000000     0.999880000000     0.024771   
C115     C      0.676240000000     0.453940000000     0.993170000000    -0.0883872  
C116     C      0.629770000000     0.454440000000     0.993710000000     0.0707643  
C117     C      0.674260000000     0.543430000000     0.005990000000     0.0799743  
C118     C      0.721220000000     0.543930000000     0.006570000000    -0.0780971  
C119     C      0.176210000000     0.453900000000     0.993210000000    -0.0883859  
C120     C      0.222970000000     0.498890000000     0.999900000000     0.0247968  
C121     C      0.221220000000     0.543890000000     0.006610000000    -0.0780433  
C122     C      0.174250000000     0.543390000000     0.006070000000     0.0799401  
C123     C      0.129740000000     0.454400000000     0.993780000000     0.0708173  
C124     C      0.273040000000     0.498890000000     0.999870000000     0.0248127  
C125     C      0.274810000000     0.453920000000     0.006610000000    -0.0780791  
C126     C      0.321770000000     0.454420000000     0.006030000000     0.0799696  
C127     C      0.366240000000     0.543370000000     0.993660000000     0.0707618  
C128     C      0.319770000000     0.543870000000     0.993130000000    -0.0883613  
C129     C      0.025970000000     0.544880000000     0.865790000000    -0.0897729  
C130     C      0.998030000000     0.498700000000     0.849850000000     0.0340332  
C131     C      0.970060000000     0.452580000000     0.865820000000    -0.0902976  
C132     C      0.970720000000     0.453270000000     0.897030000000     0.073546   
C133     C      0.025250000000     0.544280000000     0.897000000000     0.0740031  
C134     C      0.998080000000     0.498660000000     0.816710000000     0.0341069  
C135     C      0.044250000000     0.526590000000     0.800780000000    -0.0897519  
C136     C      0.043650000000     0.525870000000     0.769570000000     0.0743505  
C137     C      0.952640000000     0.471340000000     0.769530000000     0.0738451  
C138     C      0.951950000000     0.470690000000     0.800740000000    -0.0901783  
C139     C      0.819780000000     0.043890000000     0.993170000000    -0.0878154  
C140     C      0.773030000000     0.998920000000     0.999900000000     0.0242703  
C141     C      0.774790000000     0.953940000000     0.006660000000    -0.0780152  
C142     C      0.821750000000     0.954440000000     0.006120000000     0.0798213  
C143     C      0.866250000000     0.043390000000     0.993750000000     0.0709965  
C144     C      0.722960000000     0.998920000000     0.999870000000     0.0243186  
C145     C      0.721190000000     0.043910000000     0.006560000000    -0.0775778  
C146     C      0.674230000000     0.043400000000     0.005980000000     0.0803295  
C147     C      0.629760000000     0.954420000000     0.993690000000     0.070587   
C148     C      0.676220000000     0.953920000000     0.993160000000    -0.088328   
C149     C      0.176180000000     0.953870000000     0.993210000000    -0.0882932  
C150     C      0.222940000000     0.998870000000     0.999890000000     0.0243176  
C151     C      0.221190000000     0.043870000000     0.006600000000    -0.0775186  
C152     C      0.174230000000     0.043370000000     0.006070000000     0.0802766  
C153     C      0.129720000000     0.954380000000     0.993780000000     0.07064    
C154     C      0.273010000000     0.998870000000     0.999860000000     0.0243067  
C155     C      0.274780000000     0.953890000000     0.006590000000    -0.0779536  
C156     C      0.321750000000     0.954390000000     0.006010000000     0.0797901  
C157     C      0.366210000000     0.043350000000     0.993640000000     0.0710391  
C158     C      0.319740000000     0.043850000000     0.993110000000    -0.0878403  
C159     C      0.970020000000     0.952530000000     0.865830000000    -0.0902197  
C160     C      0.998000000000     0.998650000000     0.849860000000     0.0335595  
C161     C      0.025940000000     0.044830000000     0.865790000000    -0.0892306  
C162     C      0.025220000000     0.044240000000     0.897000000000     0.0742584  
C163     C      0.970680000000     0.953230000000     0.897040000000     0.0733959  
C164     C      0.998050000000     0.998600000000     0.816720000000     0.0336256  
C165     C      0.951930000000     0.970640000000     0.800750000000    -0.0901344  
C166     C      0.952620000000     0.971300000000     0.769540000000     0.0736761  
C167     C      0.043630000000     0.025820000000     0.769580000000     0.0746423  
C168     C      0.044230000000     0.026530000000     0.800790000000    -0.0891961  
C169     C      0.470670000000     0.517250000000     0.467330000000    -0.0903384  
C170     C      0.498610000000     0.499000000000     0.483260000000     0.0347011  
C171     C      0.526580000000     0.480860000000     0.467290000000    -0.0902345  
C172     C      0.525930000000     0.480890000000     0.436080000000     0.0739702  
C173     C      0.471400000000     0.517370000000     0.436120000000     0.0741212  
C174     C      0.498550000000     0.498900000000     0.516400000000     0.0346875  
C175     C      0.452380000000     0.480650000000     0.532330000000    -0.0902329  
C176     C      0.452970000000     0.480520000000     0.563540000000     0.0740554  
C177     C      0.543980000000     0.517010000000     0.563580000000     0.0740708  
C178     C      0.544680000000     0.517050000000     0.532370000000    -0.0902882  
C179     C      0.480220000000     0.527190000000     0.199040000000    -0.0901593  
C180     C      0.498380000000     0.499220000000     0.183060000000     0.0348656  
C181     C      0.516630000000     0.471290000000     0.199000000000    -0.0901767  
C182     C      0.516760000000     0.472020000000     0.230210000000     0.074169   
C183     C      0.480260000000     0.526540000000     0.230250000000     0.0741797  
C184     C      0.498270000000     0.499160000000     0.149930000000     0.0348153  
C185     C      0.480040000000     0.452990000000     0.134000000000    -0.0897971  
C186     C      0.479910000000     0.453580000000     0.102790000000     0.0744617  
C187     C      0.516380000000     0.544590000000     0.102740000000     0.0744847  
C188     C      0.516420000000     0.545290000000     0.133950000000    -0.0898105  
C189     C      0.544640000000     0.016990000000     0.532350000000    -0.089672   
C190     C      0.498510000000     0.998830000000     0.516380000000     0.0341808  
C191     C      0.452340000000     0.980590000000     0.532310000000    -0.0902073  
C192     C      0.452940000000     0.980470000000     0.563520000000     0.0738682  
C193     C      0.543950000000     0.016960000000     0.563560000000     0.0744068  
C194     C      0.498560000000     0.998920000000     0.483240000000     0.0342123  
C195     C      0.526530000000     0.980760000000     0.467270000000    -0.0902881  
C196     C      0.525860000000     0.980790000000     0.436060000000     0.0739218  
C197     C      0.471330000000     0.017270000000     0.436100000000     0.0743252  
C198     C      0.470620000000     0.017150000000     0.467310000000    -0.0896824  
C199     C      0.479970000000     0.952910000000     0.133970000000    -0.0897471  
C200     C      0.498210000000     0.999080000000     0.149910000000     0.0343691  
C201     C      0.516360000000     0.045210000000     0.133940000000    -0.0893625  
C202     C      0.516330000000     0.044520000000     0.102730000000     0.0748208  
C203     C      0.479860000000     0.953510000000     0.102760000000     0.0743085  
C204     C      0.498300000000     0.999120000000     0.183040000000     0.0343528  
C205     C      0.516550000000     0.971190000000     0.198980000000    -0.0900841  
C206     C      0.516670000000     0.971900000000     0.230190000000     0.0739995  
C207     C      0.480170000000     0.026420000000     0.230230000000     0.0745174  
C208     C      0.480140000000     0.027080000000     0.199020000000    -0.0895754  
C209     C      0.970590000000     0.517140000000     0.467450000000    -0.0902257  
C210     C      0.998530000000     0.498890000000     0.483380000000     0.0341775  
C211     C      0.026490000000     0.480730000000     0.467410000000    -0.0896924  
C212     C      0.025830000000     0.480760000000     0.436200000000     0.0743744  
C213     C      0.971310000000     0.517250000000     0.436240000000     0.0738826  
C214     C      0.998480000000     0.498800000000     0.516520000000     0.0341784  
C215     C      0.044610000000     0.516960000000     0.532490000000    -0.0896753  
C216     C      0.043920000000     0.516940000000     0.563700000000     0.0743508  
C217     C      0.952910000000     0.480450000000     0.563660000000     0.0739292  
C218     C      0.952310000000     0.480570000000     0.532450000000    -0.0901874  
C219     C      0.820330000000     0.275940000000     0.339930000000    -0.0894295  
C220     C      0.773580000000     0.274190000000     0.333220000000     0.034295   
C221     C      0.775350000000     0.320950000000     0.326530000000    -0.0894146  
C222     C      0.822310000000     0.367410000000     0.327110000000     0.0740387  
C223     C      0.866790000000     0.322900000000     0.339390000000     0.0740658  
C224     C      0.723510000000     0.224120000000     0.333190000000     0.0342402  
C225     C      0.721750000000     0.177380000000     0.326440000000    -0.0893053  
C226     C      0.674790000000     0.130920000000     0.326970000000     0.0740148  
C227     C      0.630300000000     0.175380000000     0.339340000000     0.0741063  
C228     C      0.676760000000     0.222340000000     0.339920000000    -0.0893534  
C229     C      0.221760000000     0.677340000000     0.326500000000    -0.0893542  
C230     C      0.223530000000     0.724100000000     0.333230000000     0.0342594  
C231     C      0.176800000000     0.722340000000     0.339990000000    -0.0893928  
C232     C      0.130330000000     0.675370000000     0.339450000000     0.0740886  
C233     C      0.174800000000     0.630880000000     0.327080000000     0.0740173  
C234     C      0.273600000000     0.774170000000     0.333210000000     0.0343047  
C235     C      0.320370000000     0.775930000000     0.339890000000    -0.0894511  
C236     C      0.366820000000     0.822900000000     0.339310000000     0.0740779  
C237     C      0.322310000000     0.867370000000     0.327030000000     0.0740633  
C238     C      0.275350000000     0.820910000000     0.326500000000    -0.0894483  
C239     C      0.980180000000     0.527110000000     0.199160000000    -0.0901304  
C240     C      0.998340000000     0.499140000000     0.183180000000     0.0343668  
C241     C      0.016570000000     0.471200000000     0.199120000000    -0.0895914  
C242     C      0.016680000000     0.471910000000     0.230330000000     0.07451    
C243     C      0.980210000000     0.526450000000     0.230370000000     0.0740804  
C244     C      0.998250000000     0.499100000000     0.150050000000     0.0343218  
C245     C      0.016410000000     0.545230000000     0.134080000000    -0.0892158  
C246     C      0.016380000000     0.544550000000     0.102870000000     0.0747861  
C247     C      0.979890000000     0.453540000000     0.102900000000     0.0743457  
C248     C      0.980000000000     0.452930000000     0.134110000000    -0.0897983  
C249     C      0.026570000000     0.980850000000     0.467420000000    -0.0896739  
C250     C      0.998590000000     0.999000000000     0.483390000000     0.0336596  
C251     C      0.970670000000     0.017250000000     0.467450000000    -0.0895801  
C252     C      0.971400000000     0.017380000000     0.436240000000     0.0742206  
C253     C      0.025910000000     0.980890000000     0.436210000000     0.0742466  
C254     C      0.998540000000     0.998900000000     0.516530000000     0.0337113  
C255     C      0.952360000000     0.980650000000     0.532460000000    -0.0901304  
C256     C      0.952950000000     0.980520000000     0.563670000000     0.0737486  
C257     C      0.043960000000     0.017000000000     0.563710000000     0.0747025  
C258     C      0.044660000000     0.017040000000     0.532500000000    -0.0891645  
C259     C      0.721840000000     0.677500000000     0.326460000000    -0.0894118  
C260     C      0.723600000000     0.724240000000     0.333210000000     0.0342497  
C261     C      0.676850000000     0.722470000000     0.339940000000    -0.0894004  
C262     C      0.630390000000     0.675500000000     0.339370000000     0.0740483  
C263     C      0.674880000000     0.631040000000     0.327000000000     0.0740187  
C264     C      0.773670000000     0.774310000000     0.333240000000     0.034275   
C265     C      0.820410000000     0.776060000000     0.339950000000    -0.0894259  
C266     C      0.866880000000     0.823020000000     0.339410000000     0.0739661  
C267     C      0.822400000000     0.867530000000     0.327130000000     0.0740477  
C268     C      0.775430000000     0.821070000000     0.326550000000    -0.0894471  
C269     C      0.221840000000     0.177470000000     0.326510000000    -0.0893347  
C270     C      0.223620000000     0.224220000000     0.333240000000     0.0342792  
C271     C      0.176880000000     0.222460000000     0.339990000000    -0.0893342  
C272     C      0.130420000000     0.175500000000     0.339450000000     0.0740752  
C273     C      0.174880000000     0.131010000000     0.327080000000     0.0741361  
C274     C      0.273690000000     0.274290000000     0.333220000000     0.0343118  
C275     C      0.320450000000     0.276060000000     0.339900000000    -0.089412   
C276     C      0.366910000000     0.323020000000     0.339330000000     0.0741004  
C277     C      0.322400000000     0.367500000000     0.327040000000     0.0740282  
C278     C      0.275440000000     0.321040000000     0.326510000000    -0.0893765  
C279     C      0.016620000000     0.971280000000     0.199130000000    -0.0894797  
C280     C      0.998380000000     0.999210000000     0.183190000000     0.0338906  
C281     C      0.980230000000     0.027190000000     0.199160000000    -0.0896066  
C282     C      0.980270000000     0.026540000000     0.230370000000     0.0743646  
C283     C      0.016750000000     0.972000000000     0.230340000000     0.0742801  
C284     C      0.998270000000     0.999150000000     0.150060000000     0.0338491  
C285     C      0.016430000000     0.045270000000     0.134080000000    -0.0887005  
C286     C      0.016390000000     0.044570000000     0.102870000000     0.0751296  
C287     C      0.979890000000     0.953560000000     0.102920000000     0.0741392  
C288     C      0.980020000000     0.952970000000     0.134130000000    -0.0897275  
H1       H      0.417800000000     0.740940000000     0.653630000000     0.0484425  
H2       H      0.418130000000     0.821730000000     0.654950000000     0.0216921  
H3       H      0.578490000000     0.901920000000     0.678010000000     0.0216206  
H4       H      0.578830000000     0.821460000000     0.679350000000     0.0483804  
H5       H      0.578870000000     0.756300000000     0.653710000000     0.0484066  
H6       H      0.578530000000     0.675510000000     0.655050000000     0.0216862  
H7       H      0.418110000000     0.595300000000     0.677950000000     0.0217006  
H8       H      0.417770000000     0.675750000000     0.679280000000     0.0484344  
H9       H      0.417800000000     0.240950000000     0.653610000000     0.0485033  
H10      H      0.418140000000     0.321740000000     0.654950000000     0.0216966  
H11      H      0.578490000000     0.401910000000     0.678010000000     0.0216923  
H12      H      0.578820000000     0.321450000000     0.679340000000     0.0484387  
H13      H      0.578860000000     0.256290000000     0.653680000000     0.0484398  
H14      H      0.578520000000     0.175510000000     0.655010000000     0.0217179  
H15      H      0.418090000000     0.095290000000     0.677920000000     0.0217661  
H16      H      0.417760000000     0.175750000000     0.679250000000     0.0484789  
H17      H      0.917730000000     0.675740000000     0.679390000000     0.0483677  
H18      H      0.918070000000     0.595280000000     0.678060000000     0.0217038  
H19      H      0.078490000000     0.675490000000     0.655150000000     0.0216976  
H20      H      0.078830000000     0.756280000000     0.653820000000     0.0483797  
H21      H      0.078800000000     0.821440000000     0.679470000000     0.0483367  
H22      H      0.078470000000     0.901900000000     0.678150000000     0.021586   
H23      H      0.918110000000     0.821720000000     0.655080000000     0.0216795  
H24      H      0.917770000000     0.740940000000     0.653750000000     0.0483935  
H25      H      0.078840000000     0.256290000000     0.653850000000     0.0483974  
H26      H      0.078500000000     0.175500000000     0.655180000000     0.0217162  
H27      H      0.918080000000     0.095280000000     0.678090000000     0.0217795  
H28      H      0.917740000000     0.175730000000     0.679420000000     0.0484276  
H29      H      0.917770000000     0.240930000000     0.653780000000     0.0484158  
H30      H      0.918100000000     0.321710000000     0.655100000000     0.0217152  
H31      H      0.078460000000     0.401900000000     0.678160000000     0.0216869  
H32      H      0.078800000000     0.321450000000     0.679500000000     0.0483773  
H33      H      0.448330000000     0.415990000000     0.854160000000     0.0499253  
H34      H      0.448720000000     0.416600000000     0.908390000000     0.0217052  
H35      H      0.547240000000     0.580940000000     0.908310000000     0.0216955  
H36      H      0.547730000000     0.581390000000     0.854090000000     0.0499177  
H37      H      0.415390000000     0.448910000000     0.812160000000     0.050011   
H38      H      0.416010000000     0.449300000000     0.757940000000     0.0222519  
H39      H      0.580350000000     0.547840000000     0.758010000000     0.0222378  
H40      H      0.580800000000     0.548330000000     0.812240000000     0.0499648  
H41      H      0.448330000000     0.916000000000     0.854130000000     0.0498609  
H42      H      0.448710000000     0.916600000000     0.908360000000     0.0217222  
H43      H      0.547230000000     0.080940000000     0.908300000000     0.0216802  
H44      H      0.547730000000     0.081400000000     0.854070000000     0.0498636  
H45      H      0.415390000000     0.948930000000     0.812140000000     0.0499376  
H46      H      0.416010000000     0.949320000000     0.757920000000     0.022227   
H47      H      0.580340000000     0.047860000000     0.757990000000     0.022263   
H48      H      0.580800000000     0.048360000000     0.812220000000     0.0499541  
H49      H      0.820880000000     0.579450000000     0.987050000000     0.0457473  
H50      H      0.901330000000     0.579110000000     0.988410000000     0.0211211  
H51      H      0.821130000000     0.418750000000     0.011470000000     0.022841   
H52      H      0.740340000000     0.418420000000     0.012770000000     0.0494802  
H53      H      0.675170000000     0.418390000000     0.987090000000     0.0457818  
H54      H      0.594720000000     0.418720000000     0.988390000000     0.0212009  
H55      H      0.674910000000     0.579150000000     0.011300000000     0.0228122  
H56      H      0.755690000000     0.579480000000     0.012660000000     0.0494614  
H57      H      0.255700000000     0.579440000000     0.012690000000     0.0494851  
H58      H      0.174910000000     0.579110000000     0.011390000000     0.0228503  
H59      H      0.094670000000     0.418680000000     0.988480000000     0.0212962  
H60      H      0.175120000000     0.418350000000     0.987120000000     0.0458426  
H61      H      0.240350000000     0.418380000000     0.012740000000     0.0495103  
H62      H      0.321140000000     0.418720000000     0.011370000000     0.0228564  
H63      H      0.401290000000     0.579080000000     0.988310000000     0.0212064  
H64      H      0.320830000000     0.579410000000     0.987010000000     0.0457604  
H65      H      0.948310000000     0.416010000000     0.854280000000     0.0498402  
H66      H      0.948710000000     0.416620000000     0.908500000000     0.0216872  
H67      H      0.047250000000     0.580960000000     0.908430000000     0.0216997  
H68      H      0.047740000000     0.581410000000     0.854210000000     0.0498767  
H69      H      0.080790000000     0.548360000000     0.812350000000     0.0499501  
H70      H      0.080330000000     0.547850000000     0.758130000000     0.0222231  
H71      H      0.915990000000     0.449330000000     0.758060000000     0.0222572  
H72      H      0.915380000000     0.448940000000     0.812290000000     0.0499291  
H73      H      0.740320000000     0.918400000000     0.012770000000     0.0494265  
H74      H      0.821100000000     0.918740000000     0.011480000000     0.0228253  
H75      H      0.901310000000     0.079090000000     0.988410000000     0.0211413  
H76      H      0.820860000000     0.079430000000     0.987040000000     0.0456862  
H77      H      0.755670000000     0.079460000000     0.012660000000     0.0494175  
H78      H      0.674870000000     0.079120000000     0.011280000000     0.0228125  
H79      H      0.594690000000     0.918700000000     0.988380000000     0.0212285  
H80      H      0.675150000000     0.918370000000     0.987080000000     0.0457336  
H81      H      0.255680000000     0.079420000000     0.012680000000     0.0494424  
H82      H      0.174890000000     0.079090000000     0.011390000000     0.0228532  
H83      H      0.094640000000     0.918660000000     0.988480000000     0.0213125  
H84      H      0.175090000000     0.918320000000     0.987110000000     0.0457789  
H85      H      0.240320000000     0.918350000000     0.012720000000     0.049444   
H86      H      0.321110000000     0.918690000000     0.011350000000     0.0228539  
H87      H      0.401260000000     0.079050000000     0.988290000000     0.0212188  
H88      H      0.320800000000     0.079380000000     0.987000000000     0.0457528  
H89      H      0.047710000000     0.081360000000     0.854210000000     0.0498404  
H90      H      0.047210000000     0.080920000000     0.908440000000     0.0217391  
H91      H      0.948670000000     0.916580000000     0.908510000000     0.0216875  
H92      H      0.948270000000     0.915960000000     0.854290000000     0.0497828  
H93      H      0.915360000000     0.948890000000     0.812290000000     0.0498706  
H94      H      0.915980000000     0.949290000000     0.758070000000     0.0222369  
H95      H      0.080310000000     0.047810000000     0.758140000000     0.0222602  
H96      H      0.080760000000     0.048300000000     0.812370000000     0.0499388  
H97      H      0.548330000000     0.466030000000     0.478830000000     0.0501482  
H98      H      0.547940000000     0.466270000000     0.424610000000     0.0222974  
H99      H      0.449400000000     0.532060000000     0.424680000000     0.0222781  
H100     H      0.448900000000     0.532010000000     0.478900000000     0.0501976  
H101     H      0.415840000000     0.465890000000     0.520750000000     0.0501636  
H102     H      0.416290000000     0.465830000000     0.574980000000     0.0223154  
H103     H      0.580630000000     0.531640000000     0.575050000000     0.0222912  
H104     H      0.581250000000     0.531880000000     0.520830000000     0.050168   
H105     H      0.531400000000     0.449530000000     0.187420000000     0.0505346  
H106     H      0.531450000000     0.450030000000     0.241650000000     0.0224427  
H107     H      0.465620000000     0.548550000000     0.241720000000     0.022421   
H108     H      0.465390000000     0.548930000000     0.187490000000     0.0505146  
H109     H      0.465280000000     0.416450000000     0.145580000000     0.0506212  
H110     H      0.465220000000     0.416890000000     0.091350000000     0.0234567  
H111     H      0.531020000000     0.581230000000     0.091270000000     0.0234194  
H112     H      0.531240000000     0.581860000000     0.145500000000     0.0506024  
H113     H      0.415800000000     0.965810000000     0.520740000000     0.0500552  
H114     H      0.416260000000     0.965790000000     0.574960000000     0.0222888  
H115     H      0.580600000000     0.031600000000     0.575030000000     0.0223262  
H116     H      0.581210000000     0.031810000000     0.520800000000     0.050183   
H117     H      0.548280000000     0.965950000000     0.478810000000     0.0500672  
H118     H      0.547870000000     0.966160000000     0.424590000000     0.022226   
H119     H      0.449330000000     0.031950000000     0.424660000000     0.0223436  
H120     H      0.448850000000     0.031920000000     0.478880000000     0.0502067  
H121     H      0.531180000000     0.081770000000     0.145480000000     0.0506183  
H122     H      0.530960000000     0.081170000000     0.091260000000     0.0234156  
H123     H      0.465180000000     0.916830000000     0.091320000000     0.023453   
H124     H      0.465210000000     0.916370000000     0.145540000000     0.0505807  
H125     H      0.531320000000     0.949430000000     0.187400000000     0.0504475  
H126     H      0.531360000000     0.949920000000     0.241620000000     0.0223895  
H127     H      0.465530000000     0.048430000000     0.241700000000     0.0224438  
H128     H      0.465310000000     0.048830000000     0.187470000000     0.0504811  
H129     H      0.048240000000     0.465910000000     0.478960000000     0.0501408  
H130     H      0.047840000000     0.466120000000     0.424730000000     0.0223063  
H131     H      0.949320000000     0.531940000000     0.424800000000     0.0222722  
H132     H      0.948830000000     0.531910000000     0.479020000000     0.0501148  
H133     H      0.081180000000     0.531780000000     0.520940000000     0.0501033  
H134     H      0.080570000000     0.531570000000     0.575170000000     0.022298   
H135     H      0.916230000000     0.465770000000     0.575100000000     0.0223171  
H136     H      0.915770000000     0.465800000000     0.520880000000     0.050128   
H137     H      0.740880000000     0.322030000000     0.320440000000     0.0485288  
H138     H      0.821670000000     0.402480000000     0.321810000000     0.0217282  
H139     H      0.901850000000     0.322240000000     0.344710000000     0.0216255  
H140     H      0.821390000000     0.241450000000     0.346010000000     0.0484575  
H141     H      0.756230000000     0.176320000000     0.320320000000     0.0485004  
H142     H      0.675440000000     0.095870000000     0.321620000000     0.0218284  
H143     H      0.595230000000     0.176020000000     0.344680000000     0.0217276  
H144     H      0.675680000000     0.256810000000     0.346050000000     0.0484371  
H145     H      0.175740000000     0.756810000000     0.346100000000     0.0484985  
H146     H      0.095280000000     0.676020000000     0.344800000000     0.0217904  
H147     H      0.175430000000     0.595820000000     0.321740000000     0.0217677  
H148     H      0.256220000000     0.676270000000     0.320370000000     0.0485199  
H149     H      0.321450000000     0.741460000000     0.345980000000     0.0484805  
H150     H      0.401900000000     0.822250000000     0.344610000000     0.0216889  
H151     H      0.321660000000     0.902440000000     0.321710000000     0.0216803  
H152     H      0.240870000000     0.821980000000     0.320420000000     0.0485277  
H153     H      0.031330000000     0.449430000000     0.187540000000     0.0505692  
H154     H      0.031360000000     0.449910000000     0.241760000000     0.0224432  
H155     H      0.965580000000     0.548460000000     0.241840000000     0.0223663  
H156     H      0.965370000000     0.548870000000     0.187610000000     0.0503813  
H157     H      0.031230000000     0.581800000000     0.145630000000     0.0506386  
H158     H      0.031020000000     0.581200000000     0.091400000000     0.0234709  
H159     H      0.965190000000     0.416860000000     0.091460000000     0.0233982  
H160     H      0.965230000000     0.416390000000     0.145680000000     0.0505124  
H161     H      0.948900000000     0.032020000000     0.479030000000     0.0501063  
H162     H      0.949410000000     0.032070000000     0.424810000000     0.0222939  
H163     H      0.047930000000     0.966250000000     0.424740000000     0.0222785  
H164     H      0.048310000000     0.966020000000     0.478960000000     0.0500351  
H165     H      0.915830000000     0.965890000000     0.520880000000     0.0499945  
H166     H      0.916270000000     0.965830000000     0.575100000000     0.0222716  
H167     H      0.080600000000     0.031630000000     0.575180000000     0.0223258  
H168     H      0.081230000000     0.031870000000     0.520960000000     0.0501737  
H169     H      0.675770000000     0.756930000000     0.346070000000     0.0484273  
H170     H      0.595320000000     0.676140000000     0.344710000000     0.0216985  
H171     H      0.675530000000     0.595990000000     0.321650000000     0.0217446  
H172     H      0.756310000000     0.676440000000     0.320350000000     0.0485053  
H173     H      0.821480000000     0.741580000000     0.346030000000     0.0484281  
H174     H      0.901940000000     0.822370000000     0.344730000000     0.0216306  
H175     H      0.821750000000     0.902600000000     0.321820000000     0.0216441  
H176     H      0.740960000000     0.822150000000     0.320460000000     0.0484896  
H177     H      0.175820000000     0.256940000000     0.346100000000     0.0484978  
H178     H      0.095370000000     0.176150000000     0.344800000000     0.0218217  
H179     H      0.175520000000     0.095950000000     0.321750000000     0.0218468  
H180     H      0.256310000000     0.176400000000     0.320380000000     0.0485511  
H181     H      0.321530000000     0.241590000000     0.346000000000     0.0485048  
H182     H      0.401980000000     0.322370000000     0.344630000000     0.0217138  
H183     H      0.321740000000     0.402560000000     0.321730000000     0.0217586  
H184     H      0.240960000000     0.322110000000     0.320430000000     0.0485522  
H185     H      0.965410000000     0.048940000000     0.187620000000     0.0503922  
H186     H      0.965640000000     0.048560000000     0.241840000000     0.0223968  
H187     H      0.031430000000     0.950010000000     0.241780000000     0.022467   
H188     H      0.031370000000     0.949500000000     0.187550000000     0.0504837  
H189     H      0.031260000000     0.081850000000     0.145620000000     0.0506102  
H190     H      0.031020000000     0.081220000000     0.091400000000     0.0234645  
H191     H      0.965190000000     0.916880000000     0.091480000000     0.0234194  
H192     H      0.965250000000     0.916440000000     0.145700000000     0.050472   
N1       N      0.498310000000     0.867820000000     0.666480000000    -0.207541   
N2       N      0.498320000000     0.629410000000     0.666500000000    -0.207506   
N3       N      0.498310000000     0.367820000000     0.666480000000    -0.207568   
N4       N      0.498300000000     0.129410000000     0.666470000000    -0.207462   
N5       N      0.998280000000     0.629390000000     0.666610000000    -0.20765    
N6       N      0.998290000000     0.867800000000     0.666610000000    -0.207722   
N7       N      0.998290000000     0.129400000000     0.666640000000    -0.207661   
N8       N      0.998280000000     0.367800000000     0.666630000000    -0.20769    
N9       N      0.497980000000     0.498780000000     0.912410000000    -0.207062   
N10      N      0.498190000000     0.498570000000     0.753910000000    -0.207283   
N11      N      0.497970000000     0.998780000000     0.912390000000    -0.207253   
N12      N      0.498180000000     0.998590000000     0.753890000000    -0.207453   
N13      N      0.867220000000     0.498930000000     0.999940000000    -0.209914   
N14      N      0.628820000000     0.498930000000     0.999850000000    -0.209902   
N15      N      0.128800000000     0.498890000000     0.999930000000    -0.209861   
N16      N      0.367210000000     0.498900000000     0.999840000000    -0.209952   
N17      N      0.997980000000     0.498790000000     0.912530000000    -0.207252   
N18      N      0.998170000000     0.498590000000     0.754030000000    -0.207528   
N19      N      0.867200000000     0.998910000000     0.999950000000    -0.210091   
N20      N      0.628790000000     0.998910000000     0.999830000000    -0.210107   
N21      N      0.128770000000     0.998870000000     0.999940000000    -0.210058   
N22      N      0.367180000000     0.998870000000     0.999820000000    -0.210065   
N23      N      0.997940000000     0.998750000000     0.912540000000    -0.207384   
N24      N      0.998150000000     0.998550000000     0.754040000000    -0.207593   
N25      N      0.498670000000     0.499170000000     0.420580000000    -0.207285   
N26      N      0.498450000000     0.498730000000     0.579080000000    -0.207282   
N27      N      0.498540000000     0.499290000000     0.245750000000    -0.207258   
N28      N      0.498110000000     0.499060000000     0.087250000000    -0.206358   
N29      N      0.498430000000     0.998690000000     0.579060000000    -0.207437   
N30      N      0.498600000000     0.999050000000     0.420560000000    -0.207436   
N31      N      0.498070000000     0.999000000000     0.087220000000    -0.206597   
N32      N      0.498450000000     0.999170000000     0.245730000000    -0.207507   
N33      N      0.998580000000     0.499040000000     0.420700000000    -0.207448   
N34      N      0.998390000000     0.498670000000     0.579200000000    -0.207428   
N35      N      0.867750000000     0.368350000000     0.333260000000    -0.207551   
N36      N      0.629340000000     0.129950000000     0.333150000000    -0.20751    
N37      N      0.129360000000     0.629930000000     0.333270000000    -0.207495   
N38      N      0.367770000000     0.868340000000     0.333160000000    -0.20756    
N39      N      0.998470000000     0.499190000000     0.245870000000    -0.207561   
N40      N      0.998100000000     0.499020000000     0.087370000000    -0.206531   
N41      N      0.998670000000     0.999170000000     0.420710000000    -0.207584   
N42      N      0.998430000000     0.998730000000     0.579210000000    -0.207591   
N43      N      0.629430000000     0.630070000000     0.333180000000    -0.207494   
N44      N      0.867840000000     0.868480000000     0.333280000000    -0.207575   
N45      N      0.129450000000     0.130050000000     0.333280000000    -0.207479   
N46      N      0.367860000000     0.368460000000     0.333180000000    -0.207531   
N47      N      0.998540000000     0.999290000000     0.245870000000    -0.207519   
N48      N      0.998100000000     0.999040000000     0.087370000000    -0.206747   
O1       O      0.018540000000     0.976180000000     0.290860000000    -0.556435   
O2       O      0.021780000000     0.979300000000     0.375690000000    -0.556545   
O3       O      0.956670000000     0.914260000000     0.334440000000    -0.557575   
O4       O      0.083650000000     0.041230000000     0.332100000000    -0.556813   
O5       O      0.040620000000     0.084270000000     0.334480000000    -0.556979   
O6       O      0.913640000000     0.957310000000     0.332140000000    -0.557659   
O7       O      0.975570000000     0.019170000000     0.375720000000    -0.556703   
O8       O      0.978680000000     0.022400000000     0.290900000000    -0.556725   
O9       O      0.018450000000     0.476070000000     0.290850000000    -0.557062   
O10      O      0.021680000000     0.479170000000     0.375680000000    -0.55691    
O11      O      0.956580000000     0.414140000000     0.334430000000    -0.557938   
O12      O      0.083560000000     0.541100000000     0.332090000000    -0.557514   
O13      O      0.040540000000     0.584150000000     0.334470000000    -0.55677    
O14      O      0.913550000000     0.457180000000     0.332130000000    -0.557152   
O15      O      0.975480000000     0.519040000000     0.375720000000    -0.557056   
O16      O      0.978610000000     0.522290000000     0.290890000000    -0.557097   
O17      O      0.478580000000     0.022270000000     0.290750000000    -0.556896   
O18      O      0.475480000000     0.019040000000     0.375580000000    -0.556768   
O19      O      0.540520000000     0.084150000000     0.334330000000    -0.557349   
O20      O      0.413550000000     0.957170000000     0.332000000000    -0.5577     
O21      O      0.456600000000     0.914140000000     0.334290000000    -0.55731    
O22      O      0.583560000000     0.041120000000     0.331950000000    -0.55699    
O23      O      0.521700000000     0.979190000000     0.375530000000    -0.557281   
O24      O      0.518450000000     0.976070000000     0.290710000000    -0.55719    
O25      O      0.478680000000     0.522390000000     0.290770000000    -0.557335   
O26      O      0.475560000000     0.519160000000     0.375600000000    -0.557369   
O27      O      0.540600000000     0.584270000000     0.334350000000    -0.557392   
O28      O      0.413640000000     0.457290000000     0.332020000000    -0.55724    
O29      O      0.456690000000     0.414260000000     0.334310000000    -0.557234   
O30      O      0.583650000000     0.541240000000     0.331970000000    -0.557202   
O31      O      0.521780000000     0.479310000000     0.375560000000    -0.557325   
O32      O      0.518550000000     0.476190000000     0.290730000000    -0.557203   
O33      O      0.956030000000     0.041940000000     0.998770000000    -0.55286    
O34      O      0.082990000000     0.041930000000     0.001100000000    -0.539699   
O35      O      0.021060000000     0.041860000000     0.957520000000    -0.554011   
O36      O      0.017960000000     0.042000000000     0.042350000000    -0.547293   
O37      O      0.978090000000     0.955930000000     0.042390000000    -0.547834   
O38      O      0.974840000000     0.955790000000     0.957570000000    -0.554409   
O39      O      0.039940000000     0.955850000000     0.998810000000    -0.552242   
O40      O      0.912980000000     0.955870000000     0.001150000000    -0.539711   
O41      O      0.083010000000     0.541940000000     0.001100000000    -0.540209   
O42      O      0.956050000000     0.541950000000     0.998760000000    -0.553375   
O43      O      0.017970000000     0.542000000000     0.042350000000    -0.547752   
O44      O      0.021090000000     0.541890000000     0.957520000000    -0.55441    
O45      O      0.974870000000     0.455820000000     0.957550000000    -0.554403   
O46      O      0.978110000000     0.455930000000     0.042380000000    -0.548007   
O47      O      0.913000000000     0.455880000000     0.001140000000    -0.539821   
O48      O      0.039970000000     0.455860000000     0.998800000000    -0.552245   
O49      O      0.539960000000     0.955860000000     0.998660000000    -0.552719   
O50      O      0.412980000000     0.955840000000     0.000990000000    -0.539873   
O51      O      0.474860000000     0.955800000000     0.957410000000    -0.55446    
O52      O      0.478090000000     0.955910000000     0.042240000000    -0.548076   
O53      O      0.517930000000     0.041980000000     0.042200000000    -0.547832   
O54      O      0.521070000000     0.041870000000     0.957380000000    -0.554362   
O55      O      0.456000000000     0.041910000000     0.998620000000    -0.552479   
O56      O      0.582990000000     0.041940000000     0.000960000000    -0.539519   
O57      O      0.413010000000     0.455870000000     0.001020000000    -0.540016   
O58      O      0.539990000000     0.455890000000     0.998680000000    -0.552868   
O59      O      0.478120000000     0.455950000000     0.042270000000    -0.548047   
O60      O      0.474880000000     0.455810000000     0.957440000000    -0.554678   
O61      O      0.521080000000     0.541890000000     0.957390000000    -0.554521   
O62      O      0.517970000000     0.542020000000     0.042220000000    -0.54823    
O63      O      0.583020000000     0.541960000000     0.000980000000    -0.540069   
O64      O      0.456030000000     0.541940000000     0.998640000000    -0.552821   
O65      O      0.955190000000     0.975460000000     0.709020000000    -0.556953   
O66      O      0.955320000000     0.978720000000     0.624190000000    -0.55699    
O67      O      0.955250000000     0.913600000000     0.665430000000    -0.556967   
O68      O      0.955250000000     0.040570000000     0.667780000000    -0.556641   
O69      O      0.041330000000     0.083610000000     0.665480000000    -0.556854   
O70      O      0.041320000000     0.956630000000     0.667810000000    -0.557411   
O71      O      0.041390000000     0.018580000000     0.624230000000    -0.55649    
O72      O      0.041260000000     0.021670000000     0.709060000000    -0.556567   
O73      O      0.041260000000     0.521690000000     0.709050000000    -0.556899   
O74      O      0.041370000000     0.518550000000     0.624220000000    -0.556837   
O75      O      0.041320000000     0.583600000000     0.665460000000    -0.556845   
O76      O      0.041320000000     0.456630000000     0.667810000000    -0.556899   
O77      O      0.955250000000     0.413590000000     0.665430000000    -0.557234   
O78      O      0.955240000000     0.540560000000     0.667760000000    -0.55705    
O79      O      0.955300000000     0.478690000000     0.624180000000    -0.556952   
O80      O      0.955190000000     0.475480000000     0.709010000000    -0.557156   
O81      O      0.541280000000     0.021700000000     0.708910000000    -0.557044   
O82      O      0.541400000000     0.018570000000     0.624080000000    -0.556913   
O83      O      0.541350000000     0.083620000000     0.665320000000    -0.557428   
O84      O      0.541340000000     0.956640000000     0.667670000000    -0.557754   
O85      O      0.455270000000     0.913610000000     0.665290000000    -0.557294   
O86      O      0.455270000000     0.040580000000     0.667620000000    -0.556712   
O87      O      0.455330000000     0.978700000000     0.624040000000    -0.557144   
O88      O      0.455210000000     0.975480000000     0.708870000000    -0.557049   
O89      O      0.455220000000     0.475470000000     0.708890000000    -0.557315   
O90      O      0.455350000000     0.478730000000     0.624060000000    -0.557416   
O91      O      0.455280000000     0.413610000000     0.665300000000    -0.557332   
O92      O      0.455280000000     0.540580000000     0.667650000000    -0.557328   
O93      O      0.541360000000     0.583620000000     0.665350000000    -0.557361   
O94      O      0.541350000000     0.456640000000     0.667680000000    -0.557315   
O95      O      0.541420000000     0.518590000000     0.624100000000    -0.557214   
O96      O      0.541290000000     0.521690000000     0.708930000000    -0.557354   
V1       V      0.021870000000     0.976030000000     0.333270000000     1.39478    
V2       V      0.975410000000     0.022500000000     0.333310000000     1.39531    
V3       V      0.021790000000     0.475900000000     0.333260000000     1.39664    
V4       V      0.975330000000     0.522380000000     0.333300000000     1.39371    
V5       V      0.475320000000     0.022370000000     0.333160000000     1.39633    
V6       V      0.521800000000     0.975910000000     0.333120000000     1.39429    
V7       V      0.475410000000     0.522500000000     0.333190000000     1.39521    
V8       V      0.521880000000     0.476040000000     0.333140000000     1.39514    
V9       V      0.021230000000     0.045360000000     0.999930000000     1.37529    
V10      V      0.974750000000     0.952430000000     0.999980000000     1.37184    
V11      V      0.021250000000     0.545380000000     0.999930000000     1.37511    
V12      V      0.974770000000     0.452440000000     0.999970000000     1.3721     
V13      V      0.474760000000     0.952420000000     0.999830000000     1.37304    
V14      V      0.521210000000     0.045360000000     0.999790000000     1.37427    
V15      V      0.474780000000     0.452450000000     0.999850000000     1.37365    
V16      V      0.521240000000     0.545380000000     0.999810000000     1.37345    
V17      V      0.951820000000     0.975370000000     0.666600000000     1.3932     
V18      V      0.044760000000     0.021830000000     0.666650000000     1.39675    
V19      V      0.044750000000     0.521830000000     0.666640000000     1.39552    
V20      V      0.951820000000     0.475360000000     0.666600000000     1.39439    
V21      V      0.544770000000     0.021850000000     0.666500000000     1.3963     
V22      V      0.451840000000     0.975370000000     0.666450000000     1.39382    
V23      V      0.451850000000     0.475380000000     0.666470000000     1.39521    
V24      V      0.544780000000     0.521850000000     0.666520000000     1.39509    


