data_structure

_audit_creation_method RASPA-1.0
_audit_creation_date 2023-5-23
_audit_author_name 'Poobodin Mano'

_cell_length_a    45.1921
_cell_length_b    45.1918
_cell_length_c    38.3387
_cell_angle_alpha 89.9983
_cell_angle_beta  90.0003
_cell_angle_gamma 89.9977
_cell_volume      78299.6

_symmetry_cell_setting          triclinic
_symmetry_space_group_name_Hall 'P 1'
_symmetry_space_group_name_H-M  'P 1'
_symmetry_Int_Tables_number     1

_symmetry_equiv_pos_as_xyz 'x,y,z'

loop_
_atom_site_label
_atom_site_type_symbol
_atom_site_fract_x
_atom_site_fract_y
_atom_site_fract_z
_atom_site_charge
C1       C      0.425240000000     0.288840000000     0.067630000000     0.478933   
C2       C      0.504750000000     0.288720000000     0.974020000000     0.478988   
C3       C      0.425140000000     0.288890000000     0.974130000000     0.479192   
C4       C      0.504840000000     0.288670000000     0.067520000000     0.47937    
C5       C      0.193140000000     0.521060000000     0.067880000000     0.478918   
C6       C      0.193020000000     0.600740000000     0.974470000000     0.479218   
C7       C      0.193080000000     0.521130000000     0.974400000000     0.479384   
C8       C      0.193080000000     0.600670000000     0.067970000000     0.478906   
C9       C      0.424740000000     0.832290000000     0.974440000000     0.478862   
C10      C      0.504440000000     0.832070000000     0.067830000000     0.478894   
C11      C      0.424830000000     0.832240000000     0.067940000000     0.478922   
C12      C      0.504340000000     0.832120000000     0.974340000000     0.478964   
C13      C      0.736560000000     0.520230000000     0.067490000000     0.478976   
C14      C      0.736440000000     0.599900000000     0.974080000000     0.478894   
C15      C      0.736500000000     0.520290000000     0.973990000000     0.47888    
C16      C      0.736500000000     0.599830000000     0.067570000000     0.479354   
C17      C      0.236440000000     0.021140000000     0.567970000000     0.478952   
C18      C      0.236570000000     0.100660000000     0.474380000000     0.479337   
C19      C      0.236500000000     0.021060000000     0.474480000000     0.47898    
C20      C      0.236500000000     0.100740000000     0.567880000000     0.479108   
C21      C      0.924840000000     0.788670000000     0.474330000000     0.479151   
C22      C      0.004340000000     0.788890000000     0.567940000000     0.476533   
C23      C      0.924740000000     0.788720000000     0.567830000000     0.479085   
C24      C      0.004440000000     0.788840000000     0.474450000000     0.476422   
C25      C      0.693020000000     0.020300000000     0.567580000000     0.47889    
C26      C      0.693140000000     0.099820000000     0.473990000000     0.479014   
C27      C      0.693080000000     0.020220000000     0.474080000000     0.478847   
C28      C      0.693080000000     0.099910000000     0.567480000000     0.478931   
C29      C      0.004740000000     0.332290000000     0.567630000000     0.476625   
C30      C      0.925240000000     0.332070000000     0.474020000000     0.479413   
C31      C      0.004840000000     0.332240000000     0.474140000000     0.476561   
C32      C      0.925140000000     0.332120000000     0.567520000000     0.478954   
C33      C      0.225340000000     0.265240000000     0.307880000000     0.479169   
C34      C      0.204810000000     0.356210000000     0.233980000000     0.478811   
C35      C      0.169600000000     0.320980000000     0.307880000000     0.479059   
C36      C      0.260560000000     0.300460000000     0.233960000000     0.479104   
C37      C      0.704780000000     0.264560000000     0.307730000000     0.479046   
C38      C      0.725310000000     0.355530000000     0.233830000000     0.478984   
C39      C      0.760530000000     0.320310000000     0.307740000000     0.478824   
C40      C      0.669560000000     0.299790000000     0.233830000000     0.479302   
C41      C      0.760320000000     0.320460000000     0.733650000000     0.479053   
C42      C      0.669340000000     0.299940000000     0.807560000000     0.479004   
C43      C      0.704570000000     0.264720000000     0.733650000000     0.479141   
C44      C      0.725090000000     0.355680000000     0.807560000000     0.479146   
C45      C      0.760270000000     0.799740000000     0.307810000000     0.479229   
C46      C      0.669290000000     0.820270000000     0.233910000000     0.479186   
C47      C      0.704520000000     0.855480000000     0.307810000000     0.479062   
C48      C      0.725050000000     0.764520000000     0.233900000000     0.478992   
C49      C      0.704240000000     0.855730000000     0.734080000000     0.479106   
C50      C      0.724770000000     0.764750000000     0.807980000000     0.478905   
C51      C      0.759980000000     0.799990000000     0.734080000000     0.478999   
C52      C      0.669020000000     0.820500000000     0.808000000000     0.479106   
C53      C      0.169270000000     0.800500000000     0.308310000000     0.479045   
C54      C      0.260230000000     0.821020000000     0.234400000000     0.479011   
C55      C      0.225020000000     0.856250000000     0.308320000000     0.478778   
C56      C      0.204490000000     0.765280000000     0.234400000000     0.479006   
C57      C      0.224800000000     0.856410000000     0.734230000000     0.479211   
C58      C      0.204270000000     0.765430000000     0.808130000000     0.478997   
C59      C      0.169050000000     0.800660000000     0.734220000000     0.479028   
C60      C      0.260020000000     0.821170000000     0.808130000000     0.47914    
C61      C      0.260280000000     0.300690000000     0.808050000000     0.479152   
C62      C      0.169310000000     0.321220000000     0.734150000000     0.479167   
C63      C      0.204530000000     0.356440000000     0.808060000000     0.479001   
C64      C      0.225060000000     0.265480000000     0.734150000000     0.479004   
C65      C      0.058370000000     0.305140000000     0.631740000000    -0.0904643  
C66      C      0.071970000000     0.331430000000     0.642390000000     0.0344609  
C67      C      0.062260000000     0.358160000000     0.627930000000    -0.0901263  
C68      C      0.039390000000     0.358150000000     0.603350000000     0.0733255  
C69      C      0.035910000000     0.305870000000     0.606790000000     0.0740502  
C70      C      0.096680000000     0.330670000000     0.667810000000     0.0345425  
C71      C      0.094700000000     0.313360000000     0.697980000000    -0.0906092  
C72      C      0.118900000000     0.311200000000     0.720460000000     0.0739452  
C73      C      0.146870000000     0.343180000000     0.684170000000     0.0740001  
C74      C      0.122940000000     0.346130000000     0.661360000000    -0.0901481  
C75      C      0.062470000000     0.358030000000     0.413940000000    -0.0901473  
C76      C      0.072200000000     0.331290000000     0.399540000000     0.0344465  
C77      C      0.058570000000     0.305010000000     0.410200000000    -0.0904601  
C78      C      0.036080000000     0.305770000000     0.435100000000     0.0740296  
C79      C      0.039570000000     0.358050000000     0.438470000000     0.0733644  
C80      C      0.096930000000     0.330480000000     0.374160000000     0.0345701  
C81      C      0.094960000000     0.313170000000     0.344000000000    -0.0906153  
C82      C      0.119170000000     0.310990000000     0.321540000000     0.0739431  
C83      C      0.147140000000     0.342960000000     0.357840000000     0.0739299  
C84      C      0.123190000000     0.345940000000     0.380630000000    -0.0901965  
C85      C      0.871670000000     0.304620000000     0.410020000000    -0.0905791  
C86      C      0.857960000000     0.330850000000     0.399340000000     0.0346851  
C87      C      0.867590000000     0.357640000000     0.413720000000    -0.0902812  
C88      C      0.890480000000     0.357740000000     0.438270000000     0.0738564  
C89      C      0.894150000000     0.305480000000     0.434940000000     0.0743892  
C90      C      0.833210000000     0.329960000000     0.373980000000     0.0345513  
C91      C      0.835190000000     0.312600000000     0.343850000000    -0.0905442  
C92      C      0.810970000000     0.310360000000     0.321410000000     0.0739551  
C93      C      0.782970000000     0.342350000000     0.357670000000     0.0739646  
C94      C      0.806920000000     0.345380000000     0.380440000000    -0.0901111  
C95      C      0.867410000000     0.357740000000     0.627670000000    -0.0901316  
C96      C      0.857760000000     0.330970000000     0.642080000000     0.034577   
C97      C      0.871480000000     0.304730000000     0.631440000000    -0.0904318  
C98      C      0.893990000000     0.305560000000     0.606560000000     0.0743081  
C99      C      0.890320000000     0.357830000000     0.603160000000     0.0737078  
C100     C      0.833010000000     0.330100000000     0.667430000000     0.0345913  
C101     C      0.806720000000     0.345510000000     0.660950000000    -0.090089   
C102     C      0.782760000000     0.342490000000     0.683710000000     0.0739155  
C103     C      0.810760000000     0.310530000000     0.720000000000     0.074061   
C104     C      0.834980000000     0.312760000000     0.697570000000    -0.0905484  
C105     C      0.720400000000     0.153590000000     0.631420000000    -0.0904925  
C106     C      0.694140000000     0.167280000000     0.642040000000     0.0346231  
C107     C      0.667380000000     0.157610000000     0.627630000000    -0.0902987  
C108     C      0.667330000000     0.134700000000     0.603110000000     0.0737393  
C109     C      0.719600000000     0.131080000000     0.606540000000     0.0742398  
C110     C      0.694980000000     0.192030000000     0.667410000000     0.0345358  
C111     C      0.712310000000     0.190060000000     0.697560000000    -0.0904772  
C112     C      0.714520000000     0.214280000000     0.720000000000     0.0738977  
C113     C      0.682560000000     0.242270000000     0.683690000000     0.0739321  
C114     C      0.679560000000     0.218310000000     0.660920000000    -0.0901319  
C115     C      0.720530000000     0.153430000000     0.410000000000    -0.0905095  
C116     C      0.694290000000     0.167120000000     0.399320000000     0.0345673  
C117     C      0.667510000000     0.157460000000     0.413710000000    -0.0902149  
C118     C      0.667430000000     0.134570000000     0.438250000000     0.0736884  
C119     C      0.719700000000     0.130950000000     0.434910000000     0.0742842  
C120     C      0.695150000000     0.191870000000     0.373960000000     0.0345709  
C121     C      0.679730000000     0.218150000000     0.380430000000    -0.0901227  
C122     C      0.682750000000     0.242110000000     0.357660000000     0.0739177  
C123     C      0.714730000000     0.214120000000     0.321390000000     0.0740418  
C124     C      0.712500000000     0.189890000000     0.343820000000    -0.0906009  
C125     C      0.667360000000     0.962580000000     0.413860000000    -0.0902321  
C126     C      0.694120000000     0.952880000000     0.399470000000     0.0345901  
C127     C      0.720390000000     0.966530000000     0.410140000000    -0.0905186  
C128     C      0.719590000000     0.989020000000     0.435040000000     0.0743545  
C129     C      0.667320000000     0.985480000000     0.438400000000     0.0737151  
C130     C      0.694960000000     0.928150000000     0.374090000000     0.03458    
C131     C      0.679510000000     0.901880000000     0.380550000000    -0.090179   
C132     C      0.682510000000     0.877930000000     0.357760000000     0.0740118  
C133     C      0.714490000000     0.905910000000     0.321490000000     0.0740017  
C134     C      0.712290000000     0.930120000000     0.343940000000    -0.0905581  
C135     C      0.667210000000     0.962760000000     0.627890000000    -0.0902212  
C136     C      0.693950000000     0.953080000000     0.642340000000     0.0346546  
C137     C      0.720230000000     0.966700000000     0.631690000000    -0.0905963  
C138     C      0.719470000000     0.989160000000     0.606740000000     0.0743816  
C139     C      0.667200000000     0.985630000000     0.603310000000     0.0736878  
C140     C      0.694740000000     0.928360000000     0.667750000000     0.0345943  
C141     C      0.712060000000     0.930350000000     0.697910000000    -0.0905789  
C142     C      0.714230000000     0.906150000000     0.720390000000     0.07397    
C143     C      0.682250000000     0.878160000000     0.684110000000     0.073967   
C144     C      0.679280000000     0.902100000000     0.661300000000    -0.0901924  
C145     C      0.122860000000     0.775450000000     0.381010000000    -0.0900875  
C146     C      0.096570000000     0.790860000000     0.374530000000     0.0345097  
C147     C      0.094600000000     0.808200000000     0.344390000000    -0.0905752  
C148     C      0.118830000000     0.810430000000     0.321960000000     0.0739801  
C149     C      0.146820000000     0.778470000000     0.358250000000     0.0738966  
C150     C      0.071820000000     0.789990000000     0.399890000000     0.0344902  
C151     C      0.062170000000     0.763220000000     0.414290000000    -0.0901758  
C152     C      0.039260000000     0.763130000000     0.438810000000     0.0733968  
C153     C      0.035590000000     0.815400000000     0.435400000000     0.0739968  
C154     C      0.058100000000     0.816230000000     0.410520000000    -0.0904664  
C155     C      0.061990000000     0.763320000000     0.628240000000    -0.0902363  
C156     C      0.071620000000     0.790110000000     0.642630000000     0.0344888  
C157     C      0.057910000000     0.816340000000     0.631940000000    -0.0904876  
C158     C      0.035430000000     0.815490000000     0.607020000000     0.0739466  
C159     C      0.039100000000     0.763220000000     0.603690000000     0.0735117  
C160     C      0.096370000000     0.791000000000     0.667980000000     0.0345139  
C161     C      0.094390000000     0.808360000000     0.698110000000    -0.090613   
C162     C      0.118610000000     0.810600000000     0.720550000000     0.073928   
C163     C      0.146610000000     0.778610000000     0.684290000000     0.0738882  
C164     C      0.122660000000     0.775580000000     0.661530000000    -0.0900918  
C165     C      0.834620000000     0.807790000000     0.697960000000    -0.0905584  
C166     C      0.832650000000     0.790470000000     0.667800000000     0.0346149  
C167     C      0.806390000000     0.775020000000     0.661330000000    -0.0901584  
C168     C      0.782440000000     0.778000000000     0.684120000000     0.0739427  
C169     C      0.810410000000     0.809970000000     0.720420000000     0.0740622  
C170     C      0.857380000000     0.789670000000     0.642420000000     0.0346024  
C171     C      0.867110000000     0.762930000000     0.628020000000    -0.0901538  
C172     C      0.890010000000     0.762910000000     0.603490000000     0.073698   
C173     C      0.893500000000     0.815190000000     0.606870000000     0.0744074  
C174     C      0.871010000000     0.815960000000     0.631760000000    -0.0905422  
C175     C      0.867320000000     0.762800000000     0.414030000000    -0.0901144  
C176     C      0.857610000000     0.789530000000     0.399570000000     0.0345923  
C177     C      0.871210000000     0.815820000000     0.410220000000    -0.0904568  
C178     C      0.893670000000     0.815090000000     0.435170000000     0.0743785  
C179     C      0.890190000000     0.762810000000     0.438610000000     0.0736354  
C180     C      0.832900000000     0.790300000000     0.374150000000     0.0346102  
C181     C      0.806640000000     0.774830000000     0.380610000000    -0.0901549  
C182     C      0.782710000000     0.777780000000     0.357790000000     0.0740397  
C183     C      0.810680000000     0.809760000000     0.321500000000     0.0740252  
C184     C      0.834880000000     0.807600000000     0.343980000000    -0.0905759  
C185     C      0.217520000000     0.190610000000     0.344050000000    -0.0905994  
C186     C      0.234840000000     0.192600000000     0.374210000000     0.0345513  
C187     C      0.250300000000     0.218860000000     0.380650000000    -0.0901025  
C188     C      0.247330000000     0.242800000000     0.357850000000     0.0739127  
C189     C      0.215350000000     0.214820000000     0.321570000000     0.0739817  
C190     C      0.235630000000     0.167890000000     0.399620000000     0.0345766  
C191     C      0.209350000000     0.154260000000     0.410280000000    -0.0905384  
C192     C      0.210110000000     0.131800000000     0.435220000000     0.074252   
C193     C      0.262380000000     0.135330000000     0.438650000000     0.0737356  
C194     C      0.262370000000     0.158200000000     0.414070000000    -0.0902396  
C195     C      0.217290000000     0.190840000000     0.698020000000    -0.0905279  
C196     C      0.234630000000     0.192810000000     0.667870000000     0.0344917  
C197     C      0.250070000000     0.219090000000     0.661410000000    -0.0901362  
C198     C      0.247070000000     0.243040000000     0.684200000000     0.0739657  
C199     C      0.215090000000     0.215050000000     0.720470000000     0.0739485  
C200     C      0.235460000000     0.168080000000     0.642490000000     0.0346187  
C201     C      0.209200000000     0.154430000000     0.631820000000    -0.0905264  
C202     C      0.209990000000     0.131940000000     0.606920000000     0.0742169  
C203     C      0.262270000000     0.135490000000     0.603570000000     0.0736991  
C204     C      0.262220000000     0.158380000000     0.628100000000    -0.0902935  
C205     C      0.217080000000     0.931070000000     0.698140000000    -0.0906246  
C206     C      0.234430000000     0.929100000000     0.668000000000     0.0345354  
C207     C      0.249860000000     0.902810000000     0.661530000000    -0.0901216  
C208     C      0.246840000000     0.878860000000     0.684300000000     0.0739446  
C209     C      0.214850000000     0.906840000000     0.720570000000     0.0740518  
C210     C      0.235300000000     0.953840000000     0.642640000000     0.0345957  
C211     C      0.209050000000     0.967530000000     0.631960000000    -0.0905157  
C212     C      0.209880000000     0.990010000000     0.607050000000     0.0743012  
C213     C      0.262150000000     0.986390000000     0.603710000000     0.0737257  
C214     C      0.262070000000     0.963500000000     0.628250000000    -0.0902566  
C215     C      0.217280000000     0.930900000000     0.344400000000    -0.0906012  
C216     C      0.234600000000     0.928930000000     0.374550000000     0.0345848  
C217     C      0.250020000000     0.902650000000     0.381040000000    -0.0901168  
C218     C      0.247020000000     0.878690000000     0.358270000000     0.0738545  
C219     C      0.215070000000     0.906680000000     0.321960000000     0.0741014  
C220     C      0.235440000000     0.953680000000     0.399920000000     0.0345894  
C221     C      0.262200000000     0.963350000000     0.414340000000    -0.0902326  
C222     C      0.262250000000     0.986260000000     0.438850000000     0.0737207  
C223     C      0.209980000000     0.989880000000     0.435420000000     0.0742352  
C224     C      0.209180000000     0.967370000000     0.410540000000    -0.0905394  
C225     C      0.762360000000     0.462610000000     0.127700000000    -0.0902792  
C226     C      0.735620000000     0.452910000000     0.142140000000     0.0345979  
C227     C      0.709340000000     0.466550000000     0.131500000000    -0.0904884  
C228     C      0.710100000000     0.489040000000     0.106590000000     0.0742287  
C229     C      0.762370000000     0.485500000000     0.103160000000     0.0737592  
C230     C      0.734820000000     0.428180000000     0.167530000000     0.0345473  
C231     C      0.750270000000     0.401910000000     0.161070000000    -0.0901347  
C232     C      0.747300000000     0.377970000000     0.183870000000     0.0739497  
C233     C      0.715320000000     0.405950000000     0.220160000000     0.0740626  
C234     C      0.717500000000     0.430160000000     0.197700000000    -0.0905873  
C235     C      0.762210000000     0.657460000000     0.127810000000    -0.0901694  
C236     C      0.735450000000     0.667120000000     0.142250000000     0.0345604  
C237     C      0.709190000000     0.653440000000     0.131600000000    -0.0905543  
C238     C      0.709990000000     0.630960000000     0.106690000000     0.0743122  
C239     C      0.762260000000     0.634570000000     0.103260000000     0.073635   
C240     C      0.734610000000     0.691850000000     0.167620000000     0.0345568  
C241     C      0.750050000000     0.718130000000     0.161150000000    -0.0901085  
C242     C      0.747050000000     0.742080000000     0.183940000000     0.073913   
C243     C      0.715090000000     0.714090000000     0.220230000000     0.0740496  
C244     C      0.717290000000     0.689870000000     0.197780000000    -0.0906088  
C245     C      0.717070000000     0.690080000000     0.844040000000    -0.0904617  
C246     C      0.734420000000     0.692040000000     0.874180000000     0.0345083  
C247     C      0.749830000000     0.718330000000     0.880660000000    -0.0900546  
C248     C      0.746810000000     0.742290000000     0.857910000000     0.0739751  
C249     C      0.714840000000     0.714310000000     0.821610000000     0.0739583  
C250     C      0.735290000000     0.667280000000     0.899520000000     0.0346334  
C251     C      0.762060000000     0.657610000000     0.913900000000    -0.0901772  
C252     C      0.762150000000     0.634690000000     0.938410000000     0.0737279  
C253     C      0.709880000000     0.631080000000     0.935060000000     0.0742922  
C254     C      0.709050000000     0.653590000000     0.910180000000    -0.090474   
C255     C      0.709200000000     0.466690000000     0.909960000000    -0.0905265  
C256     C      0.735470000000     0.453040000000     0.899260000000     0.0345685  
C257     C      0.762230000000     0.462730000000     0.913670000000    -0.0902235  
C258     C      0.762270000000     0.485600000000     0.938240000000     0.0737479  
C259     C      0.710000000000     0.489150000000     0.934890000000     0.0743808  
C260     C      0.734640000000     0.428320000000     0.873870000000     0.0345998  
C261     C      0.717300000000     0.430310000000     0.843730000000    -0.0906342  
C262     C      0.715110000000     0.406100000000     0.821260000000     0.0740557  
C263     C      0.747100000000     0.378110000000     0.857520000000     0.0739237  
C264     C      0.750090000000     0.402050000000     0.880310000000    -0.0900665  
C265     C      0.558100000000     0.804620000000     0.131710000000    -0.0905313  
C266     C      0.571830000000     0.830850000000     0.142370000000     0.0346128  
C267     C      0.562180000000     0.857630000000     0.128000000000    -0.0902859  
C268     C      0.539260000000     0.857740000000     0.103500000000     0.0737564  
C269     C      0.535590000000     0.805480000000     0.106840000000     0.0742994  
C270     C      0.596590000000     0.829950000000     0.167710000000     0.0345232  
C271     C      0.622880000000     0.845360000000     0.161230000000    -0.0901493  
C272     C      0.646840000000     0.842320000000     0.183990000000     0.0739902  
C273     C      0.618850000000     0.810350000000     0.220270000000     0.0740056  
C274     C      0.594620000000     0.812590000000     0.197850000000    -0.0905679  
C275     C      0.371200000000     0.805020000000     0.132000000000    -0.0905175  
C276     C      0.357590000000     0.831310000000     0.142680000000     0.0345665  
C277     C      0.367300000000     0.858050000000     0.128260000000    -0.0902508  
C278     C      0.390170000000     0.858060000000     0.103690000000     0.0736691  
C279     C      0.393670000000     0.805780000000     0.107060000000     0.0742665  
C280     C      0.332880000000     0.830510000000     0.168090000000     0.0346095  
C281     C      0.334860000000     0.813190000000     0.198240000000    -0.090642   
C282     C      0.310650000000     0.811020000000     0.220710000000     0.0740525  
C283     C      0.282680000000     0.843010000000     0.184440000000     0.0739574  
C284     C      0.306620000000     0.845980000000     0.161640000000    -0.0901954  
C285     C      0.371020000000     0.805120000000     0.910470000000    -0.0904917  
C286     C      0.357400000000     0.831410000000     0.899830000000     0.0345932  
C287     C      0.367120000000     0.858140000000     0.914270000000    -0.0902067  
C288     C      0.390020000000     0.858130000000     0.938800000000     0.0737632  
C289     C      0.393510000000     0.805860000000     0.935370000000     0.0743273  
C290     C      0.332670000000     0.830640000000     0.874440000000     0.0345724  
C291     C      0.334650000000     0.813330000000     0.844270000000    -0.0905647  
C292     C      0.310440000000     0.811170000000     0.821800000000     0.0739863  
C293     C      0.282460000000     0.843140000000     0.858110000000     0.0738756  
C294     C      0.306410000000     0.846090000000     0.880910000000    -0.0900999  
C295     C      0.557910000000     0.804740000000     0.910290000000    -0.0905292  
C296     C      0.571610000000     0.830980000000     0.899640000000     0.034644   
C297     C      0.561980000000     0.857750000000     0.914050000000    -0.0902338  
C298     C      0.539090000000     0.857830000000     0.938610000000     0.0736863  
C299     C      0.535430000000     0.805570000000     0.935210000000     0.0743304  
C300     C      0.596350000000     0.830110000000     0.874260000000     0.034581   
C301     C      0.594370000000     0.812770000000     0.844120000000    -0.0906146  
C302     C      0.618590000000     0.810550000000     0.821670000000     0.0740366  
C303     C      0.646580000000     0.842520000000     0.857940000000     0.0740135  
C304     C      0.622630000000     0.845540000000     0.880720000000    -0.0901214  
C305     C      0.212280000000     0.690650000000     0.198230000000    -0.0906527  
C306     C      0.194940000000     0.692640000000     0.168090000000     0.0345675  
C307     C      0.179490000000     0.718910000000     0.161650000000    -0.0901644  
C308     C      0.182480000000     0.742850000000     0.184450000000     0.073929   
C309     C      0.214470000000     0.714860000000     0.220700000000     0.074023   
C310     C      0.194110000000     0.667920000000     0.142690000000     0.0345759  
C311     C      0.220380000000     0.654280000000     0.132000000000    -0.0905774  
C312     C      0.219580000000     0.631810000000     0.107070000000     0.0743171  
C313     C      0.167310000000     0.635360000000     0.103720000000     0.0736874  
C314     C      0.167350000000     0.658230000000     0.128290000000    -0.0903108  
C315     C      0.220540000000     0.467380000000     0.131780000000    -0.0905223  
C316     C      0.194290000000     0.453680000000     0.142440000000     0.0345488  
C317     C      0.167520000000     0.463350000000     0.128060000000    -0.0902298  
C318     C      0.167430000000     0.486270000000     0.103560000000     0.0736505  
C319     C      0.219700000000     0.489890000000     0.106900000000     0.0742865  
C320     C      0.195170000000     0.428920000000     0.167780000000     0.0345379  
C321     C      0.212510000000     0.430890000000     0.197920000000    -0.0905679  
C322     C      0.214740000000     0.406650000000     0.220350000000     0.0739667  
C323     C      0.182770000000     0.378670000000     0.184050000000     0.0738389  
C324     C      0.179750000000     0.402640000000     0.161300000000    -0.0901137  
C325     C      0.179530000000     0.402830000000     0.880810000000    -0.0901216  
C326     C      0.194960000000     0.429110000000     0.874340000000     0.0345242  
C327     C      0.212290000000     0.431090000000     0.844180000000    -0.0906019  
C328     C      0.214490000000     0.406870000000     0.821730000000     0.0740329  
C329     C      0.182530000000     0.378880000000     0.858020000000     0.0738893  
C330     C      0.194130000000     0.453840000000     0.899720000000     0.0346133  
C331     C      0.167370000000     0.463500000000     0.914150000000    -0.0902544  
C332     C      0.167320000000     0.486390000000     0.938700000000     0.0736393  
C333     C      0.219590000000     0.490000000000     0.935270000000     0.0743376  
C334     C      0.220390000000     0.467520000000     0.910360000000    -0.090571   
C335     C      0.167220000000     0.658360000000     0.914260000000    -0.0903449  
C336     C      0.193960000000     0.668050000000     0.899820000000     0.0346428  
C337     C      0.220240000000     0.654410000000     0.910460000000    -0.0905308  
C338     C      0.219480000000     0.631930000000     0.935370000000     0.0742881  
C339     C      0.167210000000     0.635470000000     0.938800000000     0.0737547  
C340     C      0.194760000000     0.692780000000     0.874430000000     0.0345232  
C341     C      0.212070000000     0.690800000000     0.844270000000    -0.0905072  
C342     C      0.214250000000     0.715010000000     0.821800000000     0.073924   
C343     C      0.182280000000     0.742990000000     0.858090000000     0.0740082  
C344     C      0.179310000000     0.719050000000     0.880890000000    -0.0901444  
C345     C      0.371670000000     0.316220000000     0.131670000000    -0.0904701  
C346     C      0.357970000000     0.289980000000     0.142330000000     0.0345821  
C347     C      0.367600000000     0.263210000000     0.127910000000    -0.0902492  
C348     C      0.390480000000     0.263130000000     0.103350000000     0.0736379  
C349     C      0.394150000000     0.315400000000     0.106750000000     0.0741913  
C350     C      0.333230000000     0.290850000000     0.167700000000     0.0345612  
C351     C      0.335210000000     0.308190000000     0.197840000000    -0.090563   
C352     C      0.311000000000     0.310410000000     0.220290000000     0.0739988  
C353     C      0.283000000000     0.278440000000     0.184020000000     0.0739354  
C354     C      0.306950000000     0.275420000000     0.161240000000    -0.0901616  
C355     C      0.623170000000     0.274870000000     0.161050000000    -0.0901039  
C356     C      0.596910000000     0.290320000000     0.167520000000     0.0345358  
C357     C      0.594930000000     0.307620000000     0.197700000000    -0.0905555  
C358     C      0.619140000000     0.309790000000     0.220160000000     0.0739887  
C359     C      0.647120000000     0.277820000000     0.183850000000     0.0738594  
C360     C      0.572180000000     0.289550000000     0.142130000000     0.0345972  
C361     C      0.558560000000     0.315840000000     0.131490000000    -0.0905678  
C362     C      0.536070000000     0.315100000000     0.106590000000     0.0744051  
C363     C      0.539560000000     0.262830000000     0.103160000000     0.0736428  
C364     C      0.562460000000     0.262820000000     0.127690000000    -0.0902307  
C365     C      0.594720000000     0.307770000000     0.843720000000    -0.0905713  
C366     C      0.596700000000     0.290440000000     0.873870000000     0.034563   
C367     C      0.622960000000     0.274980000000     0.880320000000    -0.0900781  
C368     C      0.646910000000     0.277950000000     0.857520000000     0.0739255  
C369     C      0.618930000000     0.309950000000     0.821250000000     0.0739899  
C370     C      0.571990000000     0.289650000000     0.899280000000     0.034614   
C371     C      0.558380000000     0.315940000000     0.909960000000    -0.0905384  
C372     C      0.535920000000     0.315180000000     0.934900000000     0.0743087  
C373     C      0.539410000000     0.262900000000     0.938270000000     0.073695   
C374     C      0.562280000000     0.262910000000     0.913700000000    -0.0902473  
C375     C      0.371480000000     0.316340000000     0.910250000000    -0.090451   
C376     C      0.357750000000     0.290120000000     0.899590000000     0.0345651  
C377     C      0.367400000000     0.263330000000     0.913960000000    -0.090185   
C378     C      0.390320000000     0.263220000000     0.938470000000     0.0737629  
C379     C      0.393990000000     0.315490000000     0.935120000000     0.0742359  
C380     C      0.332990000000     0.291010000000     0.874250000000     0.0345887  
C381     C      0.306700000000     0.275600000000     0.880730000000    -0.090154   
C382     C      0.282740000000     0.278640000000     0.857970000000     0.0739806  
C383     C      0.310730000000     0.310620000000     0.821700000000     0.0739919  
C384     C      0.334960000000     0.308370000000     0.844120000000    -0.0906243  
H1       H      0.072150000000     0.378980000000     0.635700000000     0.0496478  
H2       H      0.032530000000     0.379310000000     0.592760000000     0.0218479  
H3       H      0.026230000000     0.284920000000     0.599090000000     0.0217459  
H4       H      0.065470000000     0.283980000000     0.642070000000     0.0498368  
H5       H      0.074600000000     0.301360000000     0.704070000000     0.04957    
H6       H      0.116490000000     0.297250000000     0.743280000000     0.0218529  
H7       H      0.167030000000     0.355020000000     0.677800000000     0.0220919  
H8       H      0.125340000000     0.359670000000     0.638200000000     0.0499561  
H9       H      0.065680000000     0.283840000000     0.399910000000     0.0498319  
H10      H      0.026370000000     0.284830000000     0.442810000000     0.0217665  
H11      H      0.032700000000     0.379220000000     0.449010000000     0.0218239  
H12      H      0.072380000000     0.378840000000     0.406160000000     0.0496544  
H13      H      0.074860000000     0.301170000000     0.337890000000     0.0495518  
H14      H      0.116770000000     0.297020000000     0.298720000000     0.0218664  
H15      H      0.167300000000     0.354790000000     0.364220000000     0.0221175  
H16      H      0.125590000000     0.359480000000     0.403770000000     0.0500076  
H17      H      0.857620000000     0.378410000000     0.405920000000     0.0498643  
H18      H      0.897260000000     0.378940000000     0.448810000000     0.0220662  
H19      H      0.903920000000     0.284570000000     0.442670000000     0.0220462  
H20      H      0.864640000000     0.283430000000     0.399750000000     0.0500537  
H21      H      0.855300000000     0.300630000000     0.337750000000     0.0497617  
H22      H      0.813370000000     0.296370000000     0.298610000000     0.0219843  
H23      H      0.762800000000     0.354160000000     0.364040000000     0.0221386  
H24      H      0.804510000000     0.358950000000     0.403560000000     0.0500232  
H25      H      0.864440000000     0.283540000000     0.641730000000     0.0499946  
H26      H      0.903770000000     0.284650000000     0.598870000000     0.0220728  
H27      H      0.897120000000     0.379020000000     0.592600000000     0.0221014  
H28      H      0.857420000000     0.378520000000     0.635430000000     0.0498051  
H29      H      0.804310000000     0.359060000000     0.637810000000     0.0500091  
H30      H      0.762590000000     0.354290000000     0.677320000000     0.0221488  
H31      H      0.813160000000     0.296560000000     0.742820000000     0.0219696  
H32      H      0.855100000000     0.300790000000     0.703690000000     0.0497417  
H33      H      0.646600000000     0.167580000000     0.635380000000     0.0498102  
H34      H      0.646150000000     0.127880000000     0.592550000000     0.0219872  
H35      H      0.740530000000     0.121330000000     0.598850000000     0.0220159  
H36      H      0.741580000000     0.160650000000     0.641720000000     0.0499735  
H37      H      0.724280000000     0.169940000000     0.703690000000     0.0496481  
H38      H      0.728480000000     0.211870000000     0.742820000000     0.0219719  
H39      H      0.670760000000     0.262440000000     0.677300000000     0.0221307  
H40      H      0.666020000000     0.220720000000     0.637780000000     0.050016   
H41      H      0.646730000000     0.167420000000     0.405910000000     0.0497655  
H42      H      0.646240000000     0.127760000000     0.448790000000     0.0220156  
H43      H      0.740620000000     0.121200000000     0.442640000000     0.0219968  
H44      H      0.741720000000     0.160480000000     0.399720000000     0.049972   
H45      H      0.666170000000     0.220550000000     0.403560000000     0.0500101  
H46      H      0.670940000000     0.262280000000     0.364040000000     0.0221339  
H47      H      0.728710000000     0.211710000000     0.298580000000     0.0219282  
H48      H      0.724480000000     0.169780000000     0.337720000000     0.0496929  
H49      H      0.741570000000     0.959450000000     0.399860000000     0.0500032  
H50      H      0.740520000000     0.998740000000     0.442760000000     0.0220376  
H51      H      0.646130000000     0.992320000000     0.448930000000     0.0220509  
H52      H      0.646570000000     0.952650000000     0.406070000000     0.0498113  
H53      H      0.665960000000     0.899470000000     0.403680000000     0.0500441  
H54      H      0.670690000000     0.857760000000     0.364140000000     0.0221232  
H55      H      0.728470000000     0.908320000000     0.298680000000     0.0219475  
H56      H      0.724280000000     0.950230000000     0.337840000000     0.0496992  
H57      H      0.741390000000     0.959630000000     0.642010000000     0.0500491  
H58      H      0.740420000000     0.998860000000     0.599030000000     0.0220421  
H59      H      0.646030000000     0.992470000000     0.592720000000     0.022073   
H60      H      0.646400000000     0.952850000000     0.635660000000     0.0497931  
H61      H      0.724050000000     0.950450000000     0.704010000000     0.0497358  
H62      H      0.728190000000     0.908550000000     0.743210000000     0.0219718  
H63      H      0.670420000000     0.858000000000     0.677750000000     0.0221281  
H64      H      0.665750000000     0.899690000000     0.638160000000     0.0500596  
H65      H      0.074480000000     0.820170000000     0.338270000000     0.0495363  
H66      H      0.116420000000     0.824410000000     0.299140000000     0.0218645  
H67      H      0.166990000000     0.766670000000     0.364640000000     0.0221319  
H68      H      0.125260000000     0.761890000000     0.404150000000     0.049945   
H69      H      0.072150000000     0.742440000000     0.406530000000     0.0496605  
H70      H      0.032460000000     0.741940000000     0.449360000000     0.0218133  
H71      H      0.025810000000     0.836310000000     0.443090000000     0.021774   
H72      H      0.065140000000     0.837420000000     0.400230000000     0.0498442  
H73      H      0.064940000000     0.837530000000     0.642210000000     0.0498792  
H74      H      0.025660000000     0.836390000000     0.599290000000     0.0217813  
H75      H      0.032310000000     0.742020000000     0.593160000000     0.0218009  
H76      H      0.071960000000     0.742550000000     0.636040000000     0.0496922  
H77      H      0.074280000000     0.820330000000     0.704210000000     0.0495878  
H78      H      0.116210000000     0.824590000000     0.743350000000     0.0218856  
H79      H      0.166780000000     0.766800000000     0.677920000000     0.0221257  
H80      H      0.125070000000     0.762010000000     0.638400000000     0.0499483  
H81      H      0.803990000000     0.761480000000     0.638190000000     0.0500515  
H82      H      0.762280000000     0.766170000000     0.677740000000     0.0221451  
H83      H      0.812810000000     0.823940000000     0.743240000000     0.0219859  
H84      H      0.854720000000     0.819790000000     0.704070000000     0.0497682  
H85      H      0.857200000000     0.742120000000     0.635800000000     0.0498232  
H86      H      0.896880000000     0.741740000000     0.592950000000     0.0220999  
H87      H      0.903200000000     0.836140000000     0.599160000000     0.0220672  
H88      H      0.863900000000     0.837120000000     0.642050000000     0.050059   
H89      H      0.864110000000     0.836980000000     0.399890000000     0.0500056  
H90      H      0.903350000000     0.836050000000     0.442870000000     0.0220679  
H91      H      0.897050000000     0.741650000000     0.449200000000     0.0221288  
H92      H      0.857430000000     0.741980000000     0.406260000000     0.0498083  
H93      H      0.804240000000     0.761290000000     0.403760000000     0.0500323  
H94      H      0.762550000000     0.765940000000     0.364160000000     0.0221186  
H95      H      0.813090000000     0.823710000000     0.298680000000     0.021955   
H96      H      0.854980000000     0.819600000000     0.337890000000     0.04977    
H97      H      0.263840000000     0.221280000000     0.403800000000     0.0499852  
H98      H      0.259160000000     0.262960000000     0.364210000000     0.0221384  
H99      H      0.201390000000     0.212410000000     0.298750000000     0.0218781  
H100     H      0.205530000000     0.170510000000     0.337950000000     0.04964    
H101     H      0.188190000000     0.161340000000     0.399950000000     0.0499185  
H102     H      0.189170000000     0.122100000000     0.442930000000     0.0219128  
H103     H      0.283550000000     0.128490000000     0.449240000000     0.0219901  
H104     H      0.283180000000     0.168110000000     0.406300000000     0.0497705  
H105     H      0.263620000000     0.221490000000     0.638280000000     0.0500257  
H106     H      0.258890000000     0.263200000000     0.677830000000     0.0221138  
H107     H      0.201110000000     0.212650000000     0.743280000000     0.0219093  
H108     H      0.205300000000     0.170730000000     0.704120000000     0.0496122  
H109     H      0.188020000000     0.161510000000     0.642100000000     0.0499127  
H110     H      0.189060000000     0.122220000000     0.599200000000     0.0219329  
H111     H      0.283450000000     0.128640000000     0.593030000000     0.0220041  
H112     H      0.283010000000     0.168310000000     0.635890000000     0.0498011  
H113     H      0.263420000000     0.900410000000     0.638400000000     0.0500157  
H114     H      0.258650000000     0.858690000000     0.677920000000     0.0221319  
H115     H      0.200870000000     0.909250000000     0.743380000000     0.0218899  
H116     H      0.205110000000     0.951180000000     0.704240000000     0.0496948  
H117     H      0.187860000000     0.960480000000     0.642240000000     0.0499297  
H118     H      0.188960000000     0.999760000000     0.599320000000     0.0219861  
H119     H      0.283350000000     0.993210000000     0.593170000000     0.0220622  
H120     H      0.282850000000     0.953550000000     0.636050000000     0.049811   
H121     H      0.263560000000     0.900240000000     0.404180000000     0.0500196  
H122     H      0.258820000000     0.858520000000     0.364660000000     0.0221475  
H123     H      0.201100000000     0.909090000000     0.299140000000     0.0218772  
H124     H      0.205310000000     0.951020000000     0.338270000000     0.0496378  
H125     H      0.282990000000     0.953390000000     0.406580000000     0.0497917  
H126     H      0.283430000000     0.993080000000     0.449420000000     0.0220599  
H127     H      0.189060000000     0.999630000000     0.443110000000     0.021991   
H128     H      0.188010000000     0.960310000000     0.400240000000     0.0499576  
H129     H      0.688170000000     0.459470000000     0.141810000000     0.0499364  
H130     H      0.689160000000     0.498750000000     0.098890000000     0.0219742  
H131     H      0.783540000000     0.492340000000     0.092580000000     0.0220248  
H132     H      0.783160000000     0.452680000000     0.135460000000     0.0498395  
H133     H      0.763800000000     0.399510000000     0.137920000000     0.0500339  
H134     H      0.759120000000     0.357810000000     0.177490000000     0.0221438  
H135     H      0.701370000000     0.408360000000     0.242980000000     0.021897   
H136     H      0.705520000000     0.450270000000     0.203800000000     0.0496927  
H137     H      0.688020000000     0.660490000000     0.141920000000     0.0499683  
H138     H      0.689060000000     0.621210000000     0.098990000000     0.021955   
H139     H      0.783440000000     0.627760000000     0.092690000000     0.0220486  
H140     H      0.783000000000     0.667410000000     0.135580000000     0.0498043  
H141     H      0.763590000000     0.720540000000     0.138010000000     0.0500303  
H142     H      0.758860000000     0.762250000000     0.177560000000     0.0221581  
H143     H      0.701120000000     0.711680000000     0.243050000000     0.0219171  
H144     H      0.705320000000     0.669760000000     0.203890000000     0.049699   
H145     H      0.763390000000     0.720720000000     0.903800000000     0.0500485  
H146     H      0.758610000000     0.762460000000     0.864300000000     0.0221894  
H147     H      0.700860000000     0.711910000000     0.798810000000     0.0219392  
H148     H      0.705100000000     0.669960000000     0.837920000000     0.0496474  
H149     H      0.782840000000     0.667580000000     0.906110000000     0.0498386  
H150     H      0.783340000000     0.627870000000     0.948930000000     0.0220958  
H151     H      0.688960000000     0.621320000000     0.942770000000     0.0220134  
H152     H      0.687850000000     0.660650000000     0.899920000000     0.0499548  
H153     H      0.783020000000     0.452810000000     0.905870000000     0.0498771  
H154     H      0.783450000000     0.492440000000     0.948790000000     0.022105   
H155     H      0.689060000000     0.498860000000     0.942630000000     0.0219953  
H156     H      0.688030000000     0.459610000000     0.899660000000     0.0499926  
H157     H      0.705310000000     0.450410000000     0.837640000000     0.0497256  
H158     H      0.701130000000     0.408510000000     0.798450000000     0.0219234  
H159     H      0.758930000000     0.357950000000     0.863870000000     0.0221912  
H160     H      0.763650000000     0.399640000000     0.903450000000     0.050043   
H161     H      0.572160000000     0.878400000000     0.135790000000     0.0497934  
H162     H      0.532460000000     0.878940000000     0.092970000000     0.0219916  
H163     H      0.525810000000     0.784570000000     0.099120000000     0.0219578  
H164     H      0.565140000000     0.783420000000     0.141980000000     0.0499381  
H165     H      0.625280000000     0.858930000000     0.138110000000     0.0500101  
H166     H      0.667010000000     0.854120000000     0.177600000000     0.0221117  
H167     H      0.616450000000     0.796360000000     0.243070000000     0.021917   
H168     H      0.574500000000     0.800630000000     0.203960000000     0.0496726  
H169     H      0.357410000000     0.878860000000     0.136050000000     0.0497867  
H170     H      0.397030000000     0.879230000000     0.093130000000     0.0220032  
H171     H      0.403350000000     0.784840000000     0.099340000000     0.0219444  
H172     H      0.364110000000     0.783860000000     0.142310000000     0.0499644  
H173     H      0.354960000000     0.801190000000     0.204330000000     0.0497019  
H174     H      0.313060000000     0.797050000000     0.243530000000     0.0219195  
H175     H      0.262520000000     0.854850000000     0.178080000000     0.0221045  
H176     H      0.304210000000     0.859520000000     0.138500000000     0.0500137  
H177     H      0.357210000000     0.878960000000     0.906510000000     0.049786   
H178     H      0.396890000000     0.879300000000     0.949380000000     0.02205    
H179     H      0.403200000000     0.784900000000     0.943060000000     0.0220021  
H180     H      0.363910000000     0.783960000000     0.900150000000     0.0499679  
H181     H      0.354750000000     0.801340000000     0.838150000000     0.0496869  
H182     H      0.312840000000     0.797220000000     0.798970000000     0.0219397  
H183     H      0.262300000000     0.854960000000     0.864490000000     0.0221612  
H184     H      0.304010000000     0.859620000000     0.904060000000     0.0500394  
H185     H      0.571940000000     0.878530000000     0.906280000000     0.049832   
H186     H      0.532300000000     0.879020000000     0.949180000000     0.0220855  
H187     H      0.525670000000     0.784650000000     0.942930000000     0.0220105  
H188     H      0.564940000000     0.783550000000     0.899990000000     0.0499751  
H189     H      0.574260000000     0.800800000000     0.838020000000     0.0497023  
H190     H      0.616170000000     0.796570000000     0.798860000000     0.0219105  
H191     H      0.666750000000     0.854330000000     0.864320000000     0.0221565  
H192     H      0.625050000000     0.859090000000     0.903860000000     0.0500445  
H193     H      0.165930000000     0.721320000000     0.138520000000     0.0499452  
H194     H      0.170650000000     0.763010000000     0.178090000000     0.0220746  
H195     H      0.228450000000     0.712450000000     0.243510000000     0.0219143  
H196     H      0.224270000000     0.670550000000     0.204320000000     0.049699   
H197     H      0.241550000000     0.661350000000     0.142300000000     0.0499739  
H198     H      0.240520000000     0.622100000000     0.099330000000     0.021947   
H199     H      0.146130000000     0.628530000000     0.093170000000     0.021918   
H200     H      0.146560000000     0.668150000000     0.136090000000     0.0497322  
H201     H      0.146740000000     0.453380000000     0.135850000000     0.0496833  
H202     H      0.146240000000     0.493090000000     0.093030000000     0.0219274  
H203     H      0.240620000000     0.499640000000     0.099190000000     0.0219468  
H204     H      0.241730000000     0.460310000000     0.142040000000     0.0499463  
H205     H      0.224480000000     0.451000000000     0.204040000000     0.0496679  
H206     H      0.228720000000     0.409050000000     0.243150000000     0.0219304  
H207     H      0.170970000000     0.358500000000     0.177660000000     0.0220952  
H208     H      0.166190000000     0.400240000000     0.138170000000     0.0499301  
H209     H      0.224260000000     0.451200000000     0.838070000000     0.0496819  
H210     H      0.228460000000     0.409280000000     0.798910000000     0.0219101  
H211     H      0.170720000000     0.358710000000     0.864400000000     0.022112   
H212     H      0.165990000000     0.400420000000     0.903950000000     0.0499966  
H213     H      0.146580000000     0.453560000000     0.906390000000     0.0497524  
H214     H      0.146140000000     0.493210000000     0.949270000000     0.0220053  
H215     H      0.240520000000     0.499740000000     0.942970000000     0.0219979  
H216     H      0.241560000000     0.460470000000     0.900040000000     0.0500058  
H217     H      0.241410000000     0.661490000000     0.900150000000     0.0499779  
H218     H      0.240420000000     0.622210000000     0.943070000000     0.0220091  
H219     H      0.146040000000     0.628620000000     0.949380000000     0.0219744  
H220     H      0.146420000000     0.668280000000     0.906500000000     0.0497801  
H221     H      0.224060000000     0.670690000000     0.838160000000     0.0496358  
H222     H      0.228210000000     0.712600000000     0.798980000000     0.0219274  
H223     H      0.170460000000     0.763150000000     0.864470000000     0.0220899  
H224     H      0.165770000000     0.721450000000     0.904040000000     0.0499886  
H225     H      0.357640000000     0.242430000000     0.135680000000     0.0497677  
H226     H      0.397280000000     0.241940000000     0.092790000000     0.0220012  
H227     H      0.403910000000     0.336310000000     0.099030000000     0.0219753  
H228     H      0.364640000000     0.337410000000     0.141970000000     0.0499272  
H229     H      0.355330000000     0.320160000000     0.203950000000     0.049651   
H230     H      0.313410000000     0.324390000000     0.243100000000     0.0219206  
H231     H      0.262830000000     0.266630000000     0.177640000000     0.0220943  
H232     H      0.304530000000     0.261870000000     0.138110000000     0.0499861  
H233     H      0.574830000000     0.319620000000     0.203810000000     0.0496623  
H234     H      0.616740000000     0.323740000000     0.242990000000     0.0219239  
H235     H      0.667280000000     0.266000000000     0.177470000000     0.0221398  
H236     H      0.625570000000     0.261340000000     0.137900000000     0.0499927  
H237     H      0.565670000000     0.337000000000     0.141810000000     0.0499483  
H238     H      0.526380000000     0.336060000000     0.098900000000     0.0219237  
H239     H      0.532690000000     0.241670000000     0.092580000000     0.0219901  
H240     H      0.572360000000     0.242000000000     0.135450000000     0.0497544  
H241     H      0.625370000000     0.261430000000     0.903460000000     0.050029   
H242     H      0.667060000000     0.266120000000     0.863890000000     0.0221438  
H243     H      0.616520000000     0.323910000000     0.798430000000     0.0219188  
H244     H      0.574620000000     0.319770000000     0.837630000000     0.049685   
H245     H      0.565470000000     0.337100000000     0.899650000000     0.0500034  
H246     H      0.526230000000     0.336130000000     0.942630000000     0.0220176  
H247     H      0.532550000000     0.241730000000     0.948830000000     0.0220482  
H248     H      0.572170000000     0.242100000000     0.905910000000     0.0498148  
H249     H      0.357410000000     0.242560000000     0.906170000000     0.0497699  
H250     H      0.397120000000     0.242020000000     0.948990000000     0.0220208  
H251     H      0.403770000000     0.336390000000     0.942840000000     0.0220197  
H252     H      0.364440000000     0.337540000000     0.899980000000     0.049952   
H253     H      0.304300000000     0.262040000000     0.903860000000     0.0500316  
H254     H      0.262570000000     0.266840000000     0.864360000000     0.0221237  
H255     H      0.313130000000     0.324600000000     0.798890000000     0.0219326  
H256     H      0.355070000000     0.320330000000     0.838000000000     0.0497086  
N1       N      0.026520000000     0.332150000000     0.592590000000    -0.206995   
N2       N      0.145040000000     0.325460000000     0.713210000000    -0.207414   
N3       N      0.026670000000     0.332070000000     0.449240000000    -0.206982   
N4       N      0.145320000000     0.325230000000     0.328800000000    -0.20736    
N5       N      0.903450000000     0.331820000000     0.449080000000    -0.207439   
N6       N      0.784810000000     0.324590000000     0.328660000000    -0.207266   
N7       N      0.903310000000     0.331890000000     0.592410000000    -0.207312   
N8       N      0.784600000000     0.324740000000     0.712740000000    -0.207362   
N9       N      0.693280000000     0.121740000000     0.592370000000    -0.207355   
N10      N      0.700290000000     0.240440000000     0.712730000000    -0.207295   
N11      N      0.693370000000     0.121620000000     0.449050000000    -0.207302   
N12      N      0.700500000000     0.240270000000     0.328640000000    -0.207315   
N13      N      0.693280000000     0.998400000000     0.449180000000    -0.207308   
N14      N      0.700250000000     0.879760000000     0.328740000000    -0.207316   
N15      N      0.693180000000     0.998520000000     0.592540000000    -0.207263   
N16      N      0.699980000000     0.880000000000     0.713150000000    -0.207383   
N17      N      0.144980000000     0.796210000000     0.329220000000    -0.207303   
N18      N      0.026270000000     0.789070000000     0.449550000000    -0.206966   
N19      N      0.026130000000     0.789140000000     0.592880000000    -0.20703    
N20      N      0.144770000000     0.796370000000     0.713310000000    -0.207329   
N21      N      0.784270000000     0.795730000000     0.713160000000    -0.207276   
N22      N      0.902910000000     0.788890000000     0.592720000000    -0.207335   
N23      N      0.903060000000     0.788810000000     0.449370000000    -0.207287   
N24      N      0.784540000000     0.795500000000     0.328750000000    -0.207413   
N25      N      0.229600000000     0.240960000000     0.328810000000    -0.20734    
N26      N      0.236410000000     0.122440000000     0.449420000000    -0.20742    
N27      N      0.229330000000     0.241200000000     0.713220000000    -0.2073     
N28      N      0.236310000000     0.122560000000     0.592780000000    -0.207369   
N29      N      0.229080000000     0.880690000000     0.713320000000    -0.207415   
N30      N      0.236210000000     0.999340000000     0.592910000000    -0.207243   
N31      N      0.229280000000     0.880530000000     0.329230000000    -0.207361   
N32      N      0.236300000000     0.999230000000     0.449590000000    -0.207278   
N33      N      0.736400000000     0.498410000000     0.092410000000    -0.207296   
N34      N      0.729560000000     0.379810000000     0.212900000000    -0.207336   
N35      N      0.736300000000     0.621620000000     0.092500000000    -0.207454   
N36      N      0.729310000000     0.740240000000     0.212970000000    -0.207315   
N37      N      0.729060000000     0.740460000000     0.828890000000    -0.207263   
N38      N      0.736210000000     0.621730000000     0.949180000000    -0.207292   
N39      N      0.736310000000     0.498510000000     0.949040000000    -0.207365   
N40      N      0.729350000000     0.379950000000     0.828490000000    -0.207379   
N41      N      0.526270000000     0.831820000000     0.092720000000    -0.207392   
N42      N      0.645010000000     0.824560000000     0.213000000000    -0.207409   
N43      N      0.403050000000     0.832080000000     0.092900000000    -0.207322   
N44      N      0.284510000000     0.825270000000     0.213470000000    -0.207342   
N45      N      0.402910000000     0.832150000000     0.949540000000    -0.207328   
N46      N      0.284290000000     0.825410000000     0.829060000000    -0.207368   
N47      N      0.526130000000     0.831890000000     0.949390000000    -0.207295   
N48      N      0.644740000000     0.824780000000     0.828920000000    -0.20737    
N49      N      0.200230000000     0.741010000000     0.213470000000    -0.207391   
N50      N      0.193270000000     0.622450000000     0.092920000000    -0.207401   
N51      N      0.193370000000     0.499230000000     0.092780000000    -0.207337   
N52      N      0.200520000000     0.380500000000     0.213080000000    -0.207274   
N53      N      0.200270000000     0.380720000000     0.828990000000    -0.20732    
N54      N      0.193280000000     0.499340000000     0.949460000000    -0.207393   
N55      N      0.193180000000     0.622550000000     0.949550000000    -0.207396   
N56      N      0.200010000000     0.741160000000     0.829060000000    -0.207386   
N57      N      0.403450000000     0.289070000000     0.092570000000    -0.207322   
N58      N      0.284840000000     0.296190000000     0.213040000000    -0.207355   
N59      N      0.645290000000     0.295550000000     0.212900000000    -0.207408   
N60      N      0.526660000000     0.288820000000     0.092420000000    -0.207484   
N61      N      0.645070000000     0.295690000000     0.828490000000    -0.207381   
N62      N      0.526530000000     0.288880000000     0.949070000000    -0.207345   
N63      N      0.403310000000     0.289140000000     0.949240000000    -0.207393   
N64      N      0.284570000000     0.296400000000     0.828960000000    -0.207304   
O1       O      0.435460000000     0.313450000000     0.055880000000    -0.560342   
O2       O      0.494630000000     0.313360000000     0.985790000000    -0.560158   
O3       O      0.435390000000     0.313480000000     0.985880000000    -0.560297   
O4       O      0.494700000000     0.313320000000     0.055800000000    -0.560526   
O5       O      0.494800000000     0.263980000000     0.055750000000    -0.554825   
O6       O      0.435080000000     0.264140000000     0.985870000000    -0.554357   
O7       O      0.494730000000     0.264010000000     0.985790000000    -0.55441    
O8       O      0.435150000000     0.264100000000     0.055830000000    -0.554539   
O9       O      0.168400000000     0.531030000000     0.056150000000    -0.554566   
O10      O      0.168310000000     0.590730000000     0.986250000000    -0.554462   
O11      O      0.168360000000     0.531080000000     0.986190000000    -0.554575   
O12      O      0.168350000000     0.590680000000     0.056210000000    -0.554455   
O13      O      0.217700000000     0.590510000000     0.056190000000    -0.560507   
O14      O      0.217700000000     0.531330000000     0.986120000000    -0.560375   
O15      O      0.217650000000     0.590560000000     0.986180000000    -0.56036    
O16      O      0.217750000000     0.531280000000     0.056130000000    -0.560532   
O17      O      0.434880000000     0.807640000000     0.986160000000    -0.560229   
O18      O      0.494190000000     0.807480000000     0.056080000000    -0.560429   
O19      O      0.434960000000     0.807600000000     0.056170000000    -0.560441   
O20      O      0.494120000000     0.807510000000     0.986080000000    -0.560232   
O21      O      0.494430000000     0.856860000000     0.986130000000    -0.554274   
O22      O      0.434850000000     0.856950000000     0.056180000000    -0.554563   
O23      O      0.494500000000     0.856830000000     0.056090000000    -0.554409   
O24      O      0.434780000000     0.856990000000     0.986220000000    -0.554325   
O25      O      0.711920000000     0.530400000000     0.055780000000    -0.560502   
O26      O      0.711830000000     0.589680000000     0.985830000000    -0.560208   
O27      O      0.711880000000     0.530450000000     0.985770000000    -0.560186   
O28      O      0.711880000000     0.589630000000     0.055840000000    -0.560604   
O29      O      0.761220000000     0.589880000000     0.055770000000    -0.554676   
O30      O      0.761230000000     0.530280000000     0.985750000000    -0.554203   
O31      O      0.761180000000     0.589930000000     0.985810000000    -0.55431    
O32      O      0.761270000000     0.530230000000     0.055710000000    -0.554608   
O33      O      0.211830000000     0.031330000000     0.556200000000    -0.560566   
O34      O      0.211930000000     0.090510000000     0.486120000000    -0.560503   
O35      O      0.211880000000     0.031270000000     0.486190000000    -0.560553   
O36      O      0.211880000000     0.090570000000     0.556120000000    -0.560606   
O37      O      0.261230000000     0.090740000000     0.556140000000    -0.55459    
O38      O      0.261230000000     0.031020000000     0.486260000000    -0.554628   
O39      O      0.261270000000     0.090670000000     0.486180000000    -0.554899   
O40      O      0.261180000000     0.031090000000     0.556220000000    -0.554721   
O41      O      0.934850000000     0.763970000000     0.486130000000    -0.554486   
O42      O      0.994430000000     0.764140000000     0.556180000000    -0.553145   
O43      O      0.934780000000     0.764010000000     0.556090000000    -0.554587   
O44      O      0.994500000000     0.764100000000     0.486220000000    -0.553069   
O45      O      0.994190000000     0.813450000000     0.486160000000    -0.558982   
O46      O      0.934880000000     0.813360000000     0.556080000000    -0.560228   
O47      O      0.994120000000     0.813490000000     0.556160000000    -0.558853   
O48      O      0.934950000000     0.813320000000     0.486070000000    -0.560407   
O49      O      0.668310000000     0.030290000000     0.555780000000    -0.554684   
O50      O      0.668400000000     0.089880000000     0.485740000000    -0.554529   
O51      O      0.668350000000     0.030230000000     0.485820000000    -0.554615   
O52      O      0.668360000000     0.089940000000     0.555700000000    -0.5546     
O53      O      0.717710000000     0.089690000000     0.555770000000    -0.560334   
O54      O      0.717700000000     0.030390000000     0.485840000000    -0.560427   
O55      O      0.717750000000     0.089630000000     0.485770000000    -0.560439   
O56      O      0.717660000000     0.030450000000     0.555850000000    -0.560402   
O57      O      0.994630000000     0.307640000000     0.555890000000    -0.5591     
O58      O      0.935460000000     0.307480000000     0.485800000000    -0.560405   
O59      O      0.994700000000     0.307600000000     0.485880000000    -0.558944   
O60      O      0.935390000000     0.307510000000     0.555800000000    -0.560297   
O61      O      0.935080000000     0.356860000000     0.555740000000    -0.554569   
O62      O      0.994800000000     0.356950000000     0.485870000000    -0.553096   
O63      O      0.935150000000     0.356820000000     0.485780000000    -0.554566   
O64      O      0.994730000000     0.356990000000     0.555830000000    -0.553163   
O65      O      0.236670000000     0.290310000000     0.316450000000    -0.557097   
O66      O      0.220940000000     0.358410000000     0.261490000000    -0.557836   
O67      O      0.194670000000     0.332300000000     0.316460000000    -0.557038   
O68      O      0.262760000000     0.316590000000     0.261470000000    -0.557879   
O69      O      0.235480000000     0.289140000000     0.225390000000    -0.557195   
O70      O      0.167400000000     0.304850000000     0.280360000000    -0.558104   
O71      O      0.193490000000     0.331130000000     0.225390000000    -0.556927   
O72      O      0.209220000000     0.263040000000     0.280360000000    -0.558156   
O73      O      0.720910000000     0.262360000000     0.280220000000    -0.558029   
O74      O      0.736640000000     0.330450000000     0.225250000000    -0.556864   
O75      O      0.762730000000     0.304170000000     0.280230000000    -0.557844   
O76      O      0.694640000000     0.288460000000     0.225250000000    -0.556955   
O77      O      0.667370000000     0.315910000000     0.261340000000    -0.558352   
O78      O      0.735450000000     0.331630000000     0.316320000000    -0.55701    
O79      O      0.709180000000     0.357720000000     0.261340000000    -0.558234   
O80      O      0.693460000000     0.289640000000     0.316310000000    -0.557163   
O81      O      0.762510000000     0.304330000000     0.761160000000    -0.558034   
O82      O      0.694420000000     0.288610000000     0.816130000000    -0.557053   
O83      O      0.720690000000     0.262520000000     0.761160000000    -0.558255   
O84      O      0.736420000000     0.330600000000     0.816130000000    -0.557071   
O85      O      0.708960000000     0.357880000000     0.780050000000    -0.558161   
O86      O      0.693250000000     0.289800000000     0.725060000000    -0.556893   
O87      O      0.667150000000     0.316070000000     0.780040000000    -0.557988   
O88      O      0.735240000000     0.331790000000     0.725070000000    -0.556908   
O89      O      0.762460000000     0.815870000000     0.280300000000    -0.558217   
O90      O      0.694370000000     0.831590000000     0.225330000000    -0.557011   
O91      O      0.720650000000     0.857680000000     0.280300000000    -0.558148   
O92      O      0.736370000000     0.789600000000     0.225320000000    -0.557013   
O93      O      0.708920000000     0.762320000000     0.261410000000    -0.558036   
O94      O      0.693200000000     0.830400000000     0.316390000000    -0.557122   
O95      O      0.667100000000     0.804140000000     0.261420000000    -0.558173   
O96      O      0.735190000000     0.788420000000     0.316390000000    -0.557051   
O97      O      0.720360000000     0.857920000000     0.761600000000    -0.558125   
O98      O      0.736090000000     0.789830000000     0.816570000000    -0.556879   
O99      O      0.762180000000     0.816110000000     0.761600000000    -0.558106   
O100     O      0.694100000000     0.831820000000     0.816570000000    -0.557166   
O101     O      0.666820000000     0.804370000000     0.780490000000    -0.557902   
O102     O      0.734910000000     0.788660000000     0.725500000000    -0.556981   
O103     O      0.708640000000     0.762560000000     0.780470000000    -0.558026   
O104     O      0.692910000000     0.830650000000     0.725510000000    -0.557      
O105     O      0.194340000000     0.789170000000     0.316890000000    -0.556987   
O106     O      0.262430000000     0.804890000000     0.261920000000    -0.557986   
O107     O      0.236330000000     0.831160000000     0.316900000000    -0.556898   
O108     O      0.220620000000     0.763080000000     0.261910000000    -0.557966   
O109     O      0.193160000000     0.790360000000     0.225830000000    -0.556899   
O110     O      0.208890000000     0.858450000000     0.280800000000    -0.557865   
O111     O      0.235160000000     0.832350000000     0.225830000000    -0.55704    
O112     O      0.167070000000     0.816630000000     0.280800000000    -0.55808    
O113     O      0.236120000000     0.831330000000     0.725650000000    -0.557147   
O114     O      0.220400000000     0.763240000000     0.780620000000    -0.55807    
O115     O      0.194130000000     0.789340000000     0.725640000000    -0.557044   
O116     O      0.262210000000     0.805050000000     0.780620000000    -0.55831    
O117     O      0.234940000000     0.832500000000     0.816720000000    -0.556774   
O118     O      0.166850000000     0.816790000000     0.761730000000    -0.557972   
O119     O      0.192940000000     0.790510000000     0.816710000000    -0.556841   
O120     O      0.208670000000     0.858600000000     0.761740000000    -0.558096   
O121     O      0.262480000000     0.316830000000     0.780550000000    -0.558103   
O122     O      0.194390000000     0.332540000000     0.725570000000    -0.557061   
O123     O      0.220660000000     0.358640000000     0.780550000000    -0.558156   
O124     O      0.236380000000     0.290560000000     0.725570000000    -0.556998   
O125     O      0.208930000000     0.263280000000     0.761660000000    -0.558168   
O126     O      0.193210000000     0.331360000000     0.816640000000    -0.556981   
O127     O      0.167120000000     0.305090000000     0.761660000000    -0.558081   
O128     O      0.235210000000     0.289370000000     0.816640000000    -0.557125   
V1       V      0.465050000000     0.315330000000     0.020840000000     1.40692    
V2       V      0.464940000000     0.262080000000     0.020810000000     1.3833     
V3       V      0.166380000000     0.560880000000     0.021200000000     1.38313    
V4       V      0.219630000000     0.560920000000     0.021160000000     1.40727    
V5       V      0.464530000000     0.805630000000     0.021120000000     1.40706    
V6       V      0.464640000000     0.858880000000     0.021160000000     1.38315    
V7       V      0.709950000000     0.560040000000     0.020810000000     1.40714    
V8       V      0.763200000000     0.560080000000     0.020760000000     1.38331    
V9       V      0.209950000000     0.060920000000     0.521160000000     1.40753    
V10      V      0.263210000000     0.060880000000     0.521200000000     1.38395    
V11      V      0.964640000000     0.762080000000     0.521160000000     1.38356    
V12      V      0.964530000000     0.815330000000     0.521110000000     1.40717    
V13      V      0.666380000000     0.060080000000     0.520760000000     1.38371    
V14      V      0.719630000000     0.060040000000     0.520810000000     1.40738    
V15      V      0.965050000000     0.305630000000     0.520850000000     1.40721    
V16      V      0.964930000000     0.358880000000     0.520810000000     1.38361    
V17      V      0.229830000000     0.325470000000     0.290420000000     1.39514    
V18      V      0.200330000000     0.295970000000     0.251430000000     1.39585    
V19      V      0.729800000000     0.295290000000     0.251290000000     1.39547    
V20      V      0.700290000000     0.324800000000     0.290280000000     1.39617    
V21      V      0.729580000000     0.295440000000     0.790100000000     1.39596    
V22      V      0.700080000000     0.324960000000     0.751110000000     1.3956     
V23      V      0.729540000000     0.824760000000     0.251360000000     1.39586    
V24      V      0.700030000000     0.795250000000     0.290350000000     1.39592    
V25      V      0.729250000000     0.824990000000     0.790530000000     1.39604    
V26      V      0.699750000000     0.795490000000     0.751540000000     1.39533    
V27      V      0.229500000000     0.796010000000     0.290850000000     1.3955     
V28      V      0.200000000000     0.825520000000     0.251870000000     1.39528    
V29      V      0.229290000000     0.796170000000     0.751680000000     1.39594    
V30      V      0.199780000000     0.825670000000     0.790670000000     1.39523    
V31      V      0.229550000000     0.325720000000     0.751610000000     1.39575    
V32      V      0.200050000000     0.296200000000     0.790600000000     1.3957     


